2024_89_CemigReconfigurationCases/1_AlimsCemig/MCLU14/MCLU14SegmentosMT.dss
new line.TR12116827 bus1=BMT165219067.1.2.3,bus2=BMT8709659B.1.2.3,Phases=3,Linecode=CABA08_3_3,Length=0.013605000,Units=km
new line.TR12116938 bus1=BMT1277702C.1.2.3,bus2=BMT172462187.1.2.3,Phases=3,Linecode=CABA08_3_3,Length=0.051636000,Units=km
new line.TR12116939 bus1=BMT172462187.1.2.3,bus2=BMT1276330B.1.2.3,Phases=3,Linecode=CABA08_3_3,Length=0.035477000,Units=km
new line.TR12116940 bus1=BMT172462187.1.2.3,bus2=BMT1276316B.1.2.3,Phases=3,Linecode=CABA08_3_3,Length=0.028608000,Units=km
new line.TR12116980 bus1=BMT165220308.1.2.3,bus2=BMT164794914.1.2.3,Phases=3,Linecode=CABA08_3_3,Length=0.024089000,Units=km
new line.TR12116984 bus1=BMT165220310.1.2.3,bus2=BMT165220309.1.2.3,Phases=3,Linecode=CABA08_3_3,Length=0.023351000,Units=km
new line.TR12117007 bus1=BMT1276330B.1.2.3,bus2=BMT1276337B.1.2.3,Phases=3,Linecode=CABA08_3_3,Length=0.033249000,Units=km
new line.TR12117050 bus1=BMT165218971.1.2.3,bus2=BMT148411642.1.2.3,Phases=3,Linecode=CABA08_3_3,Length=0.035617000,Units=km
new line.TR12117054 bus1=BMT165219069.1.2.3,bus2=BMT165219070.1.2.3,Phases=3,Linecode=CABA08_3_3,Length=0.037022000,Units=km
new line.TR12117057 bus1=BMT2391556B.1.2.3,bus2=BMT2391493B.1.2.3,Phases=3,Linecode=CABA08_3_3,Length=0.038428000,Units=km
new line.TR12117058 bus1=BMT2391493B.1.2.3,bus2=BMT165219073.1.2.3,Phases=3,Linecode=CABA08_3_3,Length=0.033430000,Units=km
new line.TR12117059 bus1=BMT151262931.1.2.3,bus2=BMT165219066.1.2.3,Phases=3,Linecode=CABA08_3_3,Length=0.007073000,Units=km
new line.TR12194419 bus1=BMT123155974.1.2.3,bus2=BMT157653837.1.2.3,Phases=3,Linecode=CABA08_3_3,Length=0.012731000,Units=km
new line.TR12194565 bus1=BMT1285024B.1.2.3,bus2=BMT172462190.1.2.3,Phases=3,Linecode=CABA08_3_3,Length=0.024172000,Units=km
new line.TR12194566 bus1=BMT172462190.1.2.3,bus2=BMT1285010B.1.2.3,Phases=3,Linecode=CABA08_3_3,Length=0.012086000,Units=km
new line.TR12194708 bus1=BMT164787261.1.2.3,bus2=BMT2375722D.1.2.3,Phases=3,Linecode=CABA08_3_3,Length=0.030007000,Units=km
new line.TR12194711 bus1=BMT2375722D.1.2.3,bus2=BMT6197498.1.2.3,Phases=3,Linecode=CABA08_3_3,Length=0.035364000,Units=km
new line.TR12197233 bus1=BMT165219072.1.2.3,bus2=BMT2391556B.1.2.3,Phases=3,Linecode=CABA08_3_3,Length=0.034836000,Units=km
new line.TR12197466 bus1=BMT176306797.1.2.3,bus2=BMT176306798.1.2.3,Phases=3,Linecode=CABA06_3_3,Length=0.028450000,Units=km
new line.TR12197467 bus1=BMT176306798.1.2.3,bus2=BMT176306799.1.2.3,Phases=3,Linecode=CABA06_3_3,Length=0.023543000,Units=km
new line.TR12247982 bus1=BMT1276337B.1.2.3,bus2=BMT123170590.1.2.3,Phases=3,Linecode=CABA08_3_3,Length=0.029840000,Units=km
new line.TR12248219 bus1=BMT161015564.1.2.3,bus2=BMT161015565.1.2.3,Phases=3,Linecode=CABA08_3_3,Length=0.009058000,Units=km
new line.TR12248220 bus1=BMT161015566.1.2.3,bus2=BMT161015565.1.2.3,Phases=3,Linecode=CABA08_3_3,Length=0.014564000,Units=km
new line.TR12284077 bus1=BMT2375470B.1.2.3,bus2=BMT2375477B.1.2.3,Phases=3,Linecode=CABA08_3_3,Length=0.030090000,Units=km
new line.TR12284120 bus1=BMT165219066.1.2.3,bus2=BMT8709659B.1.2.3,Phases=3,Linecode=CABA08_3_3,Length=0.019214000,Units=km
new line.TR12284132 bus1=BMT154264640.1.2.3,bus2=BMT154264641.1.2.3,Phases=3,Linecode=CAB902_4_3,Length=0.022209000,Units=km
new line.TR12284135 bus1=BMT154265028.1.2.3,bus2=BMT2375085B.1.2.3,Phases=3,Linecode=CABA06_3_3,Length=0.013457000,Units=km
new line.TR12284142 bus1=BMT2375491B.1.2.3,bus2=BMT2375631B.1.2.3,Phases=3,Linecode=CABA08_3_3,Length=0.028167000,Units=km
new line.TR12284198 bus1=BMT2375743B.1.2.3,bus2=BMT1277702C.1.2.3,Phases=3,Linecode=CABA08_3_3,Length=0.035008000,Units=km
new line.TR12284270 bus1=BMT1290302B.1.2.3,bus2=BMT1290309B.1.2.3,Phases=3,Linecode=CABA08_3_3,Length=0.033114000,Units=km
new line.TR12284278 bus1=BMT172462187.1.2.3,bus2=BMT1290302B.1.2.3,Phases=3,Linecode=CABA08_3_3,Length=0.007073000,Units=km
new line.TR12284285 bus1=BMT1290309B.1.2.3,bus2=BMT1290316B.1.2.3,Phases=3,Linecode=CABA08_3_3,Length=0.035349000,Units=km
new line.TR12284286 bus1=BMT1290316B.1.2.3,bus2=BMT1290330B.1.2.3,Phases=3,Linecode=CABA08_3_3,Length=0.034023000,Units=km
new line.TR12284288 bus1=BMT1290330B.1.2.3,bus2=BMT172462189.1.2.3,Phases=3,Linecode=CABA08_3_3,Length=0.033114000,Units=km
new line.TR12284302 bus1=BMT1285024B.1.2.3,bus2=BMT1285031B.1.2.3,Phases=3,Linecode=CABA08_3_3,Length=0.029076000,Units=km
new line.TR12421095 bus1=BMT2362940D.1.2.3,bus2=BMT165260520.1.2.3,Phases=3,Linecode=CAB609_5_3,Length=0.005002000,Units=km
new line.TR12421106 bus1=BMT2362968D.1.2.3,bus2=BMT165260521.1.2.3,Phases=3,Linecode=CAB609_5_3,Length=0.007073000,Units=km
new line.TR12421134 bus1=BMT165260518.1.2.3,bus2=BMT165260523.1.2.3,Phases=3,Linecode=CAB609_5_3,Length=0.005659000,Units=km
new line.TR12421188 bus1=BMT165260524.1.2.3,bus2=BMT165260525.1.2.3,Phases=3,Linecode=CAB609_5_3,Length=0.006405000,Units=km
new line.TR12421211 bus1=BMT165261438.1.2.3,bus2=BMT165261442.1.2.3,Phases=3,Linecode=CAB609_5_3,Length=0.007213000,Units=km
new line.TR12421231 bus1=BMT2311021.1.2.3,bus2=BMT165260506.1.2.3,Phases=3,Linecode=CAB609_5_3,Length=0.007073000,Units=km
new line.TR12421255 bus1=BMT165260508.1.2.3,bus2=BMT165260510.1.2.3,Phases=3,Linecode=CAB609_5_3,Length=0.007282000,Units=km
new line.TR12421278 bus1=BMT165260509.1.2.3,bus2=BMT165260512.1.2.3,Phases=3,Linecode=CAB609_5_3,Length=0.007282000,Units=km
new line.TR12421310 bus1=BMT2363031D.1.2.3,bus2=BMT165260513.1.2.3,Phases=3,Linecode=CAB609_5_3,Length=0.007073000,Units=km
new line.TR12421336 bus1=BMT2362786D.1.2.3,bus2=BMT165261436.1.2.3,Phases=3,Linecode=CAB609_5_3,Length=0.006710000,Units=km
new line.TR12421368 bus1=BMT165261431.1.2.3,bus2=BMT165261434.1.2.3,Phases=3,Linecode=CAB609_5_3,Length=0.008605000,Units=km
new line.TR12421387 bus1=BMT165261428.1.2.3,bus2=BMT165261432.1.2.3,Phases=3,Linecode=CAB609_5_3,Length=0.007073000,Units=km
new line.TR12421400 bus1=BMT2362611D.1.2.3,bus2=BMT165261427.1.2.3,Phases=3,Linecode=CAB609_5_3,Length=0.006405000,Units=km
new line.TR12421442 bus1=BMT4855024D.1.2.3,bus2=BMT165261429.1.2.3,Phases=3,Linecode=CAB609_5_3,Length=0.006710000,Units=km
new line.TR12421478 bus1=BMT2363080D.1.2.3,bus2=BMT165260515.1.2.3,Phases=3,Linecode=CAB609_5_3,Length=0.007812000,Units=km
new line.TR12541531 bus1=BMT2822833D.1.2.3,bus2=BMT165261437.1.2.3,Phases=3,Linecode=CAB609_5_3,Length=0.007073000,Units=km
new line.TR12541671 bus1=BMT165260514.1.2.3,bus2=BMT165260517.1.2.3,Phases=3,Linecode=CAB609_5_3,Length=0.010003000,Units=km
new line.TR12611418 bus1=BMT170809856.1.2.3,bus2=BMT170809857.1.2.3,Phases=3,Linecode=CAB107_3_3,Length=0.021960000,Units=km
new line.TR12611469 bus1=BMT1290918B.1.2.3,bus2=BMT1290988B.1.2.3,Phases=3,Linecode=CAB107_3_3,Length=0.008546000,Units=km
new line.TR12269166 bus1=BMT164864317.1.2.3,bus2=BMT153721002.1.2.3,Phases=3,Linecode=CAB611_5_3,Length=0.008249000,Units=km
new line.TR12269167 bus1=BMT164864264.1.2.3,bus2=BMT8873084B.1.2.3,Phases=3,Linecode=CAB611_5_3,Length=0.025501000,Units=km
new line.TR12269168 bus1=BMT8873084B.1.2.3,bus2=BMT8873086B.1.2.3,Phases=3,Linecode=CAB611_5_3,Length=0.173025000,Units=km
new line.TR12269169 bus1=BMT8873086B.1.2.3,bus2=BMT8873088B.1.2.3,Phases=3,Linecode=CAB611_5_3,Length=0.043840000,Units=km
new line.TR12269184 bus1=BMT8873088B.1.2.3,bus2=BMT164864265.1.2.3,Phases=3,Linecode=CAB611_5_3,Length=0.016975000,Units=km
new line.TR12269185 bus1=BMT151265541.1.2.3,bus2=BMT164864265.1.2.3,Phases=3,Linecode=CAB611_5_3,Length=0.005002000,Units=km
new line.TR12288242 bus1=BMT173870798.1.2.3,bus2=BMT173870799.1.2.3,Phases=3,Linecode=CAB107_3_3,Length=0.024521000,Units=km
new line.TR12288244 bus1=BMT173870799.1.2.3,bus2=BMT173870800.1.2.3,Phases=3,Linecode=CAB107_3_3,Length=0.012169000,Units=km
new line.TR12288265 bus1=BMT173870799.1.2.3,bus2=BMT1292472B.1.2.3,Phases=3,Linecode=CABA06_3_3,Length=0.003607000,Units=km
new line.TR12288268 bus1=BMT173870799.1.2.3,bus2=BMT1292507B.1.2.3,Phases=3,Linecode=CABA06_3_3,Length=0.040370000,Units=km
new line.TR12288271 bus1=BMT1292472B.1.2.3,bus2=BMT1292465B.1.2.3,Phases=3,Linecode=CABA06_3_3,Length=0.020523000,Units=km
new line.TR12288272 bus1=BMT1292465B.1.2.3,bus2=BMT1294481B.1.2.3,Phases=3,Linecode=CABA06_3_3,Length=0.022633000,Units=km
new line.TR12288274 bus1=BMT1294481B.1.2.3,bus2=BMT173870801.1.2.3,Phases=3,Linecode=CABA06_3_3,Length=0.038193000,Units=km
new line.TR12308192 bus1=BMT155085360.1.2.3,bus2=BMT1301341B.1.2.3,Phases=3,Linecode=CAB103_3_3,Length=0.037652000,Units=km
new line.TR12308207 bus1=BMT1301341B.1.2.3,bus2=BMT1301348B.1.2.3,Phases=3,Linecode=CAB103_3_3,Length=0.009058000,Units=km
new line.TR12867126 bus1=BMT175262232.1.2.3,bus2=BMT175262163.1.2.3,Phases=3,Linecode=CAB102_3_3,Length=0.003164000,Units=km
new line.TR12901442 bus1=BMT176306798.1.2.3,bus2=BMT176306740.1.2.3,Phases=3,Linecode=CABA06_3_3,Length=0.004125000,Units=km
new line.TR1783284 bus1=BMT2362541D.1.2.3,bus2=BMT2362548D.1.2.3,Phases=3,Linecode=CAB611_5_3,Length=0.023543000,Units=km
new line.TR1783298 bus1=BMT2362548D.1.2.3,bus2=BMT165261426.1.2.3,Phases=3,Linecode=CAB611_5_3,Length=0.022366000,Units=km
new line.TR1783326 bus1=BMT165261426.1.2.3,bus2=BMT2362569D.1.2.3,Phases=3,Linecode=CAB609_5_3,Length=0.029840000,Units=km
new line.TR1783333 bus1=BMT165261426.1.2.3,bus2=BMT2362618D.1.2.3,Phases=3,Linecode=CAB611_5_3,Length=0.020401000,Units=km
new line.TR1783340 bus1=BMT165261426.1.2.3,bus2=BMT4855304D.1.2.3,Phases=3,Linecode=CAB609_5_3,Length=0.016497000,Units=km
new line.TR1783354 bus1=BMT2362569D.1.2.3,bus2=BMT2362611D.1.2.3,Phases=3,Linecode=CAB609_5_3,Length=0.028167000,Units=km
new line.TR1783375 bus1=BMT2362618D.1.2.3,bus2=BMT165261428.1.2.3,Phases=3,Linecode=CAB611_5_3,Length=0.023351000,Units=km
new line.TR1783403 bus1=BMT165261428.1.2.3,bus2=BMT2362674D.1.2.3,Phases=3,Linecode=CAB611_5_3,Length=0.029621000,Units=km
new line.TR1783410 bus1=BMT165261428.1.2.3,bus2=BMT2362702D.1.2.3,Phases=3,Linecode=CAB611_5_3,Length=0.032565000,Units=km
new line.TR1783424 bus1=BMT2362674D.1.2.3,bus2=BMT2362681D.1.2.3,Phases=3,Linecode=CAB611_5_3,Length=0.023351000,Units=km
new line.TR1783438 bus1=BMT2362681D.1.2.3,bus2=BMT4941992D.1.2.3,Phases=3,Linecode=CAB611_5_3,Length=0.022566000,Units=km
new line.TR1783452 bus1=BMT2362688D.1.2.3,bus2=BMT165261438.1.2.3,Phases=3,Linecode=CAB611_5_3,Length=0.032319000,Units=km
new line.TR1783473 bus1=BMT2362702D.1.2.3,bus2=BMT165261431.1.2.3,Phases=3,Linecode=CAB611_5_3,Length=0.035519000,Units=km
new line.TR1783494 bus1=BMT165261431.1.2.3,bus2=BMT2362716D.1.2.3,Phases=3,Linecode=CAB611_5_3,Length=0.028642000,Units=km
new line.TR1783508 bus1=BMT2362716D.1.2.3,bus2=BMT165261433.1.2.3,Phases=3,Linecode=CAB611_5_3,Length=0.039821000,Units=km
new line.TR1783529 bus1=BMT165261433.1.2.3,bus2=BMT2362772D.1.2.3,Phases=3,Linecode=CAB611_5_3,Length=0.042212000,Units=km
new line.TR1783536 bus1=BMT165261433.1.2.3,bus2=BMT123156898.1.2.3,Phases=3,Linecode=CAB611_5_3,Length=0.033068000,Units=km
new line.TR1783550 bus1=BMT2362772D.1.2.3,bus2=BMT165261435.1.2.3,Phases=3,Linecode=CAB611_5_3,Length=0.019421000,Units=km
new line.TR1783571 bus1=BMT165261435.1.2.3,bus2=BMT2362786D.1.2.3,Phases=3,Linecode=CAB609_5_3,Length=0.020401000,Units=km
new line.TR1783578 bus1=BMT165261435.1.2.3,bus2=BMT2822833D.1.2.3,Phases=3,Linecode=CAB609_5_3,Length=0.037665000,Units=km
new line.TR1783592 bus1=BMT165260504.1.2.3,bus2=BMT2311021.1.2.3,Phases=3,Linecode=CAB611_5_3,Length=0.007282000,Units=km
new line.TR1783627 bus1=BMT2362814D.1.2.3,bus2=BMT2362821D.1.2.3,Phases=3,Linecode=CAB611_5_3,Length=0.035911000,Units=km
new line.TR1783641 bus1=BMT2362821D.1.2.3,bus2=BMT165260507.1.2.3,Phases=3,Linecode=CAB611_5_3,Length=0.031583000,Units=km
new line.TR1783662 bus1=BMT165260507.1.2.3,bus2=BMT165260518.1.2.3,Phases=3,Linecode=CAB609_5_3,Length=0.016283000,Units=km
new line.TR1783669 bus1=BMT165260507.1.2.3,bus2=BMT2362919D.1.2.3,Phases=3,Linecode=CAB611_5_3,Length=0.023351000,Units=km
new line.TR1783690 bus1=BMT165260518.1.2.3,bus2=BMT2362842D.1.2.3,Phases=3,Linecode=CAB609_5_3,Length=0.022366000,Units=km
new line.TR1783704 bus1=BMT2362842D.1.2.3,bus2=BMT2362898D.1.2.3,Phases=3,Linecode=CAB609_5_3,Length=0.027466000,Units=km
new line.TR1783718 bus1=BMT2362898D.1.2.3,bus2=BMT165260522.1.2.3,Phases=3,Linecode=CAB609_5_3,Length=0.017267000,Units=km
new line.TR1783739 bus1=BMT165260522.1.2.3,bus2=BMT165260524.1.2.3,Phases=3,Linecode=CAB609_3_3,Length=0.024521000,Units=km
new line.TR1783753 bus1=BMT2362919D.1.2.3,bus2=BMT165260519.1.2.3,Phases=3,Linecode=CAB611_5_3,Length=0.043576000,Units=km
new line.TR1783767 bus1=BMT2362926D.1.2.3,bus2=BMT2362933D.1.2.3,Phases=3,Linecode=CAB609_5_3,Length=0.032396000,Units=km
new line.TR1783781 bus1=BMT2362933D.1.2.3,bus2=BMT2362940D.1.2.3,Phases=3,Linecode=CAB609_5_3,Length=0.037345000,Units=km
new line.TR1783809 bus1=BMT165260519.1.2.3,bus2=BMT2362926D.1.2.3,Phases=3,Linecode=CAB609_5_3,Length=0.031056000,Units=km
new line.TR1783816 bus1=BMT165260519.1.2.3,bus2=BMT2362954D.1.2.3,Phases=3,Linecode=CAB609_5_3,Length=0.034937000,Units=km
new line.TR1783830 bus1=BMT2362954D.1.2.3,bus2=BMT2362961D.1.2.3,Phases=3,Linecode=CAB609_5_3,Length=0.031583000,Units=km
new line.TR1783844 bus1=BMT2362961D.1.2.3,bus2=BMT2362968D.1.2.3,Phases=3,Linecode=CAB609_5_3,Length=0.017121000,Units=km
new line.TR1783879 bus1=BMT165260508.1.2.3,bus2=BMT2362975D.1.2.3,Phases=3,Linecode=CAB611_5_3,Length=0.035701000,Units=km
new line.TR1783893 bus1=BMT2362989D.1.2.3,bus2=BMT165260508.1.2.3,Phases=3,Linecode=CAB611_5_3,Length=0.024521000,Units=km
new line.TR12611474 bus1=BMT1290988B.1.2.3,bus2=BMT170809856.1.2.3,Phases=3,Linecode=CAB107_3_3,Length=0.007002000,Units=km
new line.TR12611493 bus1=BMT170809856.1.2.3,bus2=BMT9221216B.1.2.3,Phases=3,Linecode=CABA06_3_3,Length=0.008546000,Units=km
new line.TR12611494 bus1=BMT9221216B.1.2.3,bus2=BMT8876477B.1.2.3,Phases=3,Linecode=CABA06_3_3,Length=0.021195000,Units=km
new line.TR12611509 bus1=BMT8876477B.1.2.3,bus2=BMT170809858.1.2.3,Phases=3,Linecode=CABA06_3_3,Length=0.013605000,Units=km
new line.TR12700157 bus1=BMT1310273B.1.2.3,bus2=BMT169702613.1.2.3,Phases=3,Linecode=CABA06_3_3,Length=0.007631000,Units=km
new line.TR12700158 bus1=BMT169702613.1.2.3,bus2=BMT169702615.1.2.3,Phases=3,Linecode=CABA06_3_3,Length=0.032210000,Units=km
new line.TR12700262 bus1=BMT169702611.1.2.3,bus2=BMT169702613.1.2.3,Phases=3,Linecode=CABA06_3_3,Length=0.034041000,Units=km
new line.TR12700263 bus1=BMT169702613.1.2.3,bus2=BMT1310280B.1.2.3,Phases=3,Linecode=CABA06_3_3,Length=0.007813000,Units=km
new line.TR12822806 bus1=BMT152184051.1.2.3,bus2=BMT173870810.1.2.3,Phases=3,Linecode=CAB107_3_3,Length=0.004474000,Units=km
new line.TR12822807 bus1=BMT173870811.1.2.3,bus2=BMT173870812.1.2.3,Phases=3,Linecode=CAB107_3_3,Length=0.019421000,Units=km
new line.TR12843474 bus1=BMT174491923.1.2.3,bus2=BMT174491919.1.2.3,Phases=3,Linecode=CAB102_3_3,Length=0.003607000,Units=km
new line.TR1778650 bus1=BMT164864317.1.2.3,bus2=BMT2357151B.1.2.3,Phases=3,Linecode=CAB611_5_3,Length=0.232384000,Units=km
new line.TR1778657 bus1=BMT164864317.1.2.3,bus2=BMT2357529B.1.2.3,Phases=3,Linecode=CAB611_5_3,Length=0.058194000,Units=km
new line.TR1778664 bus1=BMT2357151B.1.2.3,bus2=BMT2357578B.1.2.3,Phases=3,Linecode=CAB611_5_3,Length=0.168115000,Units=km
new line.TR1779042 bus1=BMT2357578B.1.2.3,bus2=BMT2357690B.1.2.3,Phases=3,Linecode=CAB611_5_3,Length=0.146146000,Units=km
new line.TR1779140 bus1=BMT2357690B.1.2.3,bus2=BMT2357697B.1.2.3,Phases=3,Linecode=CAB611_5_3,Length=0.162533000,Units=km
new line.TR1779147 bus1=BMT2357697B.1.2.3,bus2=BMT2357711B.1.2.3,Phases=3,Linecode=CAB611_5_3,Length=0.152153000,Units=km
new line.TR1779161 bus1=BMT2357711B.1.2.3,bus2=BMT2357725B.1.2.3,Phases=3,Linecode=CAB611_5_3,Length=0.142738000,Units=km
new line.TR1779175 bus1=BMT2357725B.1.2.3,bus2=BMT2357739B.1.2.3,Phases=3,Linecode=CAB611_5_3,Length=0.144091000,Units=km
new line.TR1779189 bus1=BMT2357739B.1.2.3,bus2=BMT2357760B.1.2.3,Phases=3,Linecode=CAB611_5_3,Length=0.228640000,Units=km
new line.TR1779210 bus1=BMT2357760B.1.2.3,bus2=BMT2357767B.1.2.3,Phases=3,Linecode=CAB611_5_3,Length=0.092633000,Units=km
new line.TR1779217 bus1=BMT2357767B.1.2.3,bus2=BMT2357816B.1.2.3,Phases=3,Linecode=CAB611_5_3,Length=0.030683000,Units=km
new line.TR1779259 bus1=BMT2357816B.1.2.3,bus2=BMT2357837B.1.2.3,Phases=3,Linecode=CAB611_5_3,Length=0.117363000,Units=km
new line.TR1779273 bus1=BMT2357837B.1.2.3,bus2=BMT123156828.1.2.3,Phases=3,Linecode=CAB611_5_3,Length=0.009852000,Units=km
new line.TR2332518 bus1=BMT3052510B.1.2.3,bus2=BMT150344809.1.2.3,Phases=3,Linecode=CAB601_3_3,Length=0.005659000,Units=km
new line.TR2332525 bus1=BMT3052517B.1.2.3,bus2=BMT3052510B.1.2.3,Phases=3,Linecode=CAB601_3_3,Length=0.014321000,Units=km
new line.TR2689567 bus1=BMT151158680.1.2.3,bus2=BMT151158681.1.2.3,Phases=3,Linecode=CAB609_5_3,Length=0.016497000,Units=km
new line.TR2689574 bus1=BMT151158681.1.2.3,bus2=BMT151158682.1.2.3,Phases=3,Linecode=CAB609_3_3,Length=0.006326000,Units=km
new line.TR3819724 bus1=BMT4941992D.1.2.3,bus2=BMT165261430.1.2.3,Phases=3,Linecode=CAB611_5_3,Length=0.005387000,Units=km
new line.TR3819738 bus1=BMT165261430.1.2.3,bus2=BMT2362688D.1.2.3,Phases=3,Linecode=CAB611_5_3,Length=0.029418000,Units=km
new line.TR539391 bus1=BMT172461992.1.2.3,bus2=BMT172461991.1.2.3,Phases=3,Linecode=CABA08_3_3,Length=0.030601000,Units=km
new line.TR539454 bus1=BMT172461991.1.2.3,bus2=BMT172461990.1.2.3,Phases=3,Linecode=CABA08_3_3,Length=0.029621000,Units=km
new line.TR544144 bus1=BMT1207436B.1.2.3,bus2=BMT123169519.1.2.3,Phases=3,Linecode=CAB103_3_3,Length=0.030813000,Units=km
new line.TR544151 bus1=BMT1207450B.1.2.3,bus2=BMT1207436B.1.2.3,Phases=3,Linecode=CAB103_3_3,Length=0.038022000,Units=km
new line.TR544158 bus1=BMT123169512.1.2.3,bus2=BMT1207450B.1.2.3,Phases=3,Linecode=CAB103_3_3,Length=0.035008000,Units=km
new line.TR544165 bus1=BMT123169421.1.2.3,bus2=BMT1470027B.1.2.3,Phases=3,Linecode=CAB108_3_3,Length=0.035814000,Units=km
new line.TR544179 bus1=BMT1207632B.1.2.3,bus2=BMT1207653B.1.2.3,Phases=3,Linecode=CAB102_3_3,Length=0.033023000,Units=km
new line.TR544186 bus1=BMT1207653B.1.2.3,bus2=BMT127584566.1.2.3,Phases=3,Linecode=CAB102_3_3,Length=0.033846000,Units=km
new line.TR544193 bus1=BMT127584566.1.2.3,bus2=BMT1207709B.1.2.3,Phases=3,Linecode=CAB102_3_3,Length=0.038022000,Units=km
new line.TR544200 bus1=BMT1207709B.1.2.3,bus2=BMT127584573.1.2.3,Phases=3,Linecode=CAB102_3_3,Length=0.030813000,Units=km
new line.TR544830 bus1=BMT1208969B.1.2.3,bus2=BMT1208976B.1.2.3,Phases=3,Linecode=CAB102_3_3,Length=0.024419000,Units=km
new line.TR544837 bus1=BMT1208976B.1.2.3,bus2=BMT1210411B.1.2.3,Phases=3,Linecode=CAB102_3_3,Length=0.028642000,Units=km
new line.TR544844 bus1=BMT123169526.1.2.3,bus2=BMT123169533.1.2.3,Phases=3,Linecode=CAB102_3_3,Length=0.041966000,Units=km
new line.TR544851 bus1=BMT123158039.1.2.3,bus2=BMT1209312B.1.2.3,Phases=3,Linecode=CAB108_3_3,Length=0.043611000,Units=km
new line.TR544858 bus1=BMT123169533.1.2.3,bus2=BMT123169540.1.2.3,Phases=3,Linecode=CAB102_3_3,Length=0.020620000,Units=km
new line.TR544865 bus1=BMT123169533.1.2.3,bus2=BMT1208962B.1.2.3,Phases=3,Linecode=CAB102_3_3,Length=0.005669000,Units=km
new line.TR544872 bus1=BMT123169533.1.2.3,bus2=BMT1208969B.1.2.3,Phases=3,Linecode=CAB102_3_3,Length=0.008605000,Units=km
new line.TR544893 bus1=BMT1209018B.1.2.3,bus2=BMT1209032B.1.2.3,Phases=3,Linecode=CAB102_3_3,Length=0.035683000,Units=km
new line.TR544900 bus1=BMT1209032B.1.2.3,bus2=BMT127584552.1.2.3,Phases=3,Linecode=CAB102_3_3,Length=0.035256000,Units=km
new line.TR544907 bus1=BMT1209046B.1.2.3,bus2=BMT127584559.1.2.3,Phases=3,Linecode=CAB102_3_3,Length=0.030239000,Units=km
new line.TR544914 bus1=BMT1209053B.1.2.3,bus2=BMT1207632B.1.2.3,Phases=3,Linecode=CAB102_3_3,Length=0.032210000,Units=km
new line.TR544998 bus1=BMT1209249B.1.2.3,bus2=BMT1320507B.1.2.3,Phases=3,Linecode=CAB102_3_3,Length=0.027860000,Units=km
new line.TR545005 bus1=BMT1209256B.1.2.3,bus2=BMT123157976.1.2.3,Phases=3,Linecode=CAB108_3_3,Length=0.030618000,Units=km
new line.TR545012 bus1=BMT123169589.1.2.3,bus2=BMT1209249B.1.2.3,Phases=3,Linecode=CAB102_3_3,Length=0.035542000,Units=km
new line.TR545019 bus1=BMT123157976.1.2.3,bus2=BMT123157983.1.2.3,Phases=3,Linecode=CAB108_3_3,Length=0.037493000,Units=km
new line.TR12126881 bus1=BMT174491637.1.2.3,bus2=BMT174491639.1.2.3,Phases=3,Linecode=CABA06_3_3,Length=0.030090000,Units=km
new line.TR12146102 bus1=BMT174491639.1.2.3,bus2=BMT1343152B.1.2.3,Phases=3,Linecode=CABA06_3_3,Length=0.023092000,Units=km
new line.TR12296422 bus1=BMT157975361.1.2.3,bus2=BMT1302202B.1.2.3,Phases=3,Linecode=CABA06_3_3,Length=0.038648000,Units=km
new line.TR12296429 bus1=BMT1302202B.1.2.3,bus2=BMT157975362.1.2.3,Phases=3,Linecode=CABA06_3_3,Length=0.042765000,Units=km
new line.TR12411326 bus1=BMT4944617E.1.2.3,bus2=BMT165261440.1.2.3,Phases=3,Linecode=CAB611_5_3,Length=0.026006000,Units=km
new line.TR12411329 bus1=BMT165261440.1.2.3,bus2=BMT2362695E.1.2.3,Phases=3,Linecode=CAB609_5_3,Length=0.026006000,Units=km
new line.TR12411332 bus1=BMT2362695E.1.2.3,bus2=BMT165261439.1.2.3,Phases=3,Linecode=CAB609_5_3,Length=0.032319000,Units=km
new line.TR12411336 bus1=BMT165261430.1.2.3,bus2=BMT165261439.1.2.3,Phases=3,Linecode=CAB611_3_3,Length=0.029418000,Units=km
new line.TR12411600 bus1=BMT165260514.1.2.3,bus2=BMT4939262D.1.2.3,Phases=3,Linecode=CAB611_5_3,Length=0.037864000,Units=km
new line.TR12411603 bus1=BMT4939262D.1.2.3,bus2=BMT9018110D.1.2.3,Phases=3,Linecode=CAB611_5_3,Length=0.023200000,Units=km
new line.TR12411662 bus1=BMT4944617E.1.2.3,bus2=BMT165261441.1.2.3,Phases=3,Linecode=CAB611_5_3,Length=0.029840000,Units=km
new line.TR12411670 bus1=BMT9018110D.1.2.3,bus2=BMT165260516.1.2.3,Phases=3,Linecode=CAB611_5_3,Length=0.014870000,Units=km
new line.TR12782146 bus1=BMT1276316B.1.2.3,bus2=BMT172462188.1.2.3,Phases=3,Linecode=CABA08_3_3,Length=0.013042000,Units=km
new line.TR12782147 bus1=BMT172462188.1.2.3,bus2=BMT172462191.1.2.3,Phases=3,Linecode=CABA08_3_3,Length=0.016647000,Units=km
new line.TR1545053 bus1=BMT123156821.1.2.3,bus2=BMT2357529B.1.2.3,Phases=3,Linecode=CAB611_5_3,Length=0.017092000,Units=km
new line.TR1545060 bus1=BMT149727126.1.2.3,bus2=BMT1311071B.1.2.3,Phases=3,Linecode=CAB107_3_3,Length=0.005002000,Units=km
new line.TR1545067 bus1=BMT149727126.1.2.3,bus2=BMT149727128.1.2.3,Phases=3,Linecode=CAB107_3_3,Length=0.032023000,Units=km
new line.TR1545074 bus1=BMT149727126.1.2.3,bus2=BMT123157283.1.2.3,Phases=3,Linecode=CAB107_3_3,Length=0.024027000,Units=km
new line.TR1545081 bus1=BMT2106390B.1.2.3,bus2=BMT1213778B.1.2.3,Phases=3,Linecode=CAB102_3_3,Length=0.023393000,Units=km
new line.TR1545088 bus1=BMT2106390B.1.2.3,bus2=BMT1213792B.1.2.3,Phases=3,Linecode=CAB102_3_3,Length=0.011426000,Units=km
new line.TR1545095 bus1=BMT2106390B.1.2.3,bus2=BMT1213799B.1.2.3,Phases=3,Linecode=CAB108_3_3,Length=0.021937000,Units=km
new line.TR1545102 bus1=BMT127584552.1.2.3,bus2=BMT1209039B.1.2.3,Phases=3,Linecode=CAB102_3_3,Length=0.022809000,Units=km
new line.TR1545109 bus1=BMT127584552.1.2.3,bus2=BMT1209046B.1.2.3,Phases=3,Linecode=CAB102_3_3,Length=0.005002000,Units=km
new line.TR1545116 bus1=BMT127584552.1.2.3,bus2=BMT1209053B.1.2.3,Phases=3,Linecode=CAB102_3_3,Length=0.004244000,Units=km
new line.TR1545123 bus1=BMT123157689.1.2.3,bus2=BMT123157696.1.2.3,Phases=3,Linecode=CAB104_3_3,Length=0.023353000,Units=km
new line.TR1545130 bus1=BMT123157689.1.2.3,bus2=BMT1306626B.1.2.3,Phases=3,Linecode=CAB108_3_3,Length=0.019034000,Units=km
new line.TR1545137 bus1=BMT123157689.1.2.3,bus2=BMT1306647B.1.2.3,Phases=3,Linecode=CAB102_3_3,Length=0.010444000,Units=km
new line.TR1793070 bus1=BMT2375085B.1.2.3,bus2=BMT2375092B.1.2.3,Phases=3,Linecode=CABA06_3_3,Length=0.031583000,Units=km
new line.TR1793077 bus1=BMT2375092B.1.2.3,bus2=BMT2375099B.1.2.3,Phases=3,Linecode=CABA06_3_3,Length=0.033742000,Units=km
new line.TR1793084 bus1=BMT2375099B.1.2.3,bus2=BMT154265029.1.2.3,Phases=3,Linecode=CABA06_3_3,Length=0.032565000,Units=km
new line.TR1793140 bus1=BMT2375435B.1.2.3,bus2=BMT1272963B.1.2.3,Phases=3,Linecode=CABA08_3_3,Length=0.025006000,Units=km
new line.TR1793147 bus1=BMT2375435B.1.2.3,bus2=BMT154265024.1.2.3,Phases=3,Linecode=CABA08_3_3,Length=0.040059000,Units=km
new line.TR1793154 bus1=BMT164786527.1.2.3,bus2=BMT2375449B.1.2.3,Phases=3,Linecode=CABA08_3_3,Length=0.036409000,Units=km
new line.TR1793161 bus1=BMT2375449B.1.2.3,bus2=BMT2375456B.1.2.3,Phases=3,Linecode=CABA08_3_3,Length=0.025006000,Units=km
new line.TR1793168 bus1=BMT2375456B.1.2.3,bus2=BMT154264639.1.2.3,Phases=3,Linecode=CABA08_3_3,Length=0.020886000,Units=km
new line.TR1793175 bus1=BMT154264639.1.2.3,bus2=BMT2375470B.1.2.3,Phases=3,Linecode=CABA08_3_3,Length=0.027665000,Units=km
...
