2024_89_CemigReconfigurationCases/1_AlimsCemig/MCLU14/MCLU14Transformadores.dss
new transformer.1037406 Phases=3,Windings=2,Buses=[BMT161025961.1.2.3 BBT103101716.1.2.3.0],Conns=[delta wye],kvs=[13.8 0.22],kvas=[45.000000000 45.000000000],Taps=[1,1.000000000],%loadloss=1.522000000,%noloadloss=0.377777778
new transformer.1089892 Phases=3,Windings=2,Buses=[BMT138901214.1.2.3 BBT138821211.1.2.3.0],Conns=[delta wye],kvs=[13.8 0.22],kvas=[250.000000000 250.000000000],Taps=[1,1.000000000],%loadloss=1.080000000,%noloadloss=0.249000000
new transformer.1407122 Phases=3,Windings=2,Buses=[BMT152346602.1.2.3 BBT152183643.1.2.3.0],Conns=[delta wye],kvs=[13.8 0.22],kvas=[150.000000000 150.000000000],Taps=[1,1.000000000],%loadloss=1.127000000,%noloadloss=0.280000000
new transformer.1418235 Phases=3,Windings=2,Buses=[BMT157975362.1.2.3 BBT154696565.1.2.3.0],Conns=[delta wye],kvs=[13.8 0.22],kvas=[150.000000000 150.000000000],Taps=[1,1.000000000],%loadloss=1.127000000,%noloadloss=0.280000000
new transformer.1488820 Phases=3,Windings=2,Buses=[BMT169702615.1.2.3 BBT169696417.1.2.3.0],Conns=[delta wye],kvs=[13.8 0.22],kvas=[75.000000000 75.000000000],Taps=[1,1.000000000],%loadloss=1.340000000,%noloadloss=0.340000000
new transformer.365217 Phases=3,Windings=2,Buses=[BMT172461992.1.2.3 BBT1593948.1.2.3.0],Conns=[delta wye],kvs=[13.8 0.22],kvas=[150.000000000 150.000000000],Taps=[1,1.000000000],%loadloss=1.127000000,%noloadloss=0.280000000
new transformer.365231 Phases=3,Windings=2,Buses=[BMT172461991.1.2.3 BBT1594067.1.2.3.0],Conns=[delta wye],kvs=[13.8 0.22],kvas=[225.000000000 225.000000000],Taps=[1,1.000000000],%loadloss=1.060000000,%noloadloss=0.248888889
new transformer.368633 Phases=3,Windings=2,Buses=[BMT174633389.1.2.3 BBT1607318.1.2.3.0],Conns=[delta wye],kvs=[13.8 0.22],kvas=[45.000000000 45.000000000],Taps=[1,1.000000000],%loadloss=1.522000000,%noloadloss=0.377777778
new transformer.368640 Phases=3,Windings=2,Buses=[BMT123169582.1.2.3 BBT1607521.1.2.3.0],Conns=[delta wye],kvs=[13.8 0.22],kvas=[30.000000000 30.000000000],Taps=[1,1.000000000],%loadloss=1.667000000,%noloadloss=0.433333333
new transformer.368668 Phases=3,Windings=2,Buses=[BMT123169519.1.2.3 BBT1608214.1.2.3.0],Conns=[delta wye],kvs=[13.8 0.22],kvas=[45.000000000 45.000000000],Taps=[1,1.000000000],%loadloss=1.522000000,%noloadloss=0.377777778
new transformer.368682 Phases=3,Windings=2,Buses=[BMT127584573.1.2.3 BBT1608431.1.2.3.0],Conns=[delta wye],kvs=[13.8 0.22],kvas=[75.000000000 75.000000000],Taps=[1,1.000000000],%loadloss=1.340000000,%noloadloss=0.340000000
new transformer.368752 Phases=3,Windings=2,Buses=[BMT123169540.1.2.3 BBT1609782.1.2.3.0],Conns=[delta wye],kvs=[13.8 0.22],kvas=[30.000000000 30.000000000],Taps=[1,1.000000000],%loadloss=1.667000000,%noloadloss=0.433333333
new transformer.368766 Phases=3,Windings=2,Buses=[BMT127584587.1.2.3 BBT1609894.1.2.3.0],Conns=[delta wye],kvs=[13.8 0.22],kvas=[75.000000000 75.000000000],Taps=[1,1.000000000],%loadloss=1.340000000,%noloadloss=0.340000000
new transformer.368787 Phases=3,Windings=2,Buses=[BMT160841558.1.2.3 BBT1610188.1.2.3.0],Conns=[delta wye],kvs=[13.8 0.22],kvas=[75.000000000 75.000000000],Taps=[1,1.000000000],%loadloss=1.340000000,%noloadloss=0.340000000
new transformer.391782 Phases=3,Windings=2,Buses=[BMT173870812.1.2.3 BBT1712801.1.2.3.0],Conns=[delta wye],kvs=[13.8 0.22],kvas=[150.000000000 150.000000000],Taps=[1,1.000000000],%loadloss=1.127000000,%noloadloss=0.280000000
new transformer.392216 Phases=3,Windings=2,Buses=[BMT172462189.1.2.3 BBT1718541.1.2.3.0],Conns=[delta wye],kvs=[13.8 0.22],kvas=[100.000000000 100.000000000],Taps=[1,1.000000000],%loadloss=1.330000000,%noloadloss=0.390000000
new transformer.392237 Phases=3,Windings=2,Buses=[BMT123157220.1.2.3 BBT1718821.1.2.3.0],Conns=[delta wye],kvs=[13.8 0.22],kvas=[100.000000000 100.000000000],Taps=[1,1.000000000],%loadloss=1.330000000,%noloadloss=0.390000000
new transformer.392265 Phases=3,Windings=2,Buses=[BMT170809855.1.2.3 BBT1719234.1.2.3.0],Conns=[delta wye],kvs=[13.8 0.22],kvas=[100.000000000 100.000000000],Taps=[1,1.000000000],%loadloss=1.330000000,%noloadloss=0.390000000
new transformer.392279 Phases=3,Windings=2,Buses=[BMT170809854.1.2.3 BBT1719472.1.2.3.0],Conns=[delta wye],kvs=[13.8 0.22],kvas=[100.000000000 100.000000000],Taps=[1,1.000000000],%loadloss=1.330000000,%noloadloss=0.390000000
new transformer.392300 Phases=3,Windings=2,Buses=[BMT173870806.1.2.3 BBT1719766.1.2.3.0],Conns=[delta wye],kvs=[13.8 0.22],kvas=[150.000000000 150.000000000],Taps=[1,1.000000000],%loadloss=1.127000000,%noloadloss=0.280000000
new transformer.392391 Phases=3,Windings=2,Buses=[BMT165220313.1.2.3 BBT1720907.1.2.3.0],Conns=[delta wye],kvs=[13.8 0.22],kvas=[75.000000000 75.000000000],Taps=[1,1.000000000],%loadloss=1.340000000,%noloadloss=0.340000000
new transformer.392405 Phases=3,Windings=2,Buses=[BMT173870802.1.2.3 BBT1721159.1.2.3.0],Conns=[delta wye],kvs=[13.8 0.22],kvas=[100.000000000 100.000000000],Taps=[1,1.000000000],%loadloss=1.330000000,%noloadloss=0.390000000
new transformer.1123177 Phases=3,Windings=2,Buses=[BMT147655414.1.2.3 BBT147655449.1.2.3.0],Conns=[delta wye],kvs=[13.8 0.22],kvas=[45.000000000 45.000000000],Taps=[1,1.000000000],%loadloss=1.522000000,%noloadloss=0.377777778
new transformer.1393005 Phases=3,Windings=2,Buses=[BMT174491639.1.2.3 BBT148735499.1.2.3.0],Conns=[delta wye],kvs=[13.8 0.22],kvas=[150.000000000 150.000000000],Taps=[1,1.000000000],%loadloss=1.127000000,%noloadloss=0.280000000
new transformer.1402678 Phases=3,Windings=2,Buses=[BMT160673196.1.2.3 BBT151091551.1.2.3.0],Conns=[delta wye],kvs=[13.8 0.22],kvas=[75.000000000 75.000000000],Taps=[1,1.000000000],%loadloss=1.340000000,%noloadloss=0.340000000
new transformer.1410863 Phases=3,Windings=2,Buses=[BMT161015565.1.2.3 BBT153033639.1.2.3.0],Conns=[delta wye],kvs=[13.8 0.22],kvas=[150.000000000 150.000000000],Taps=[1,1.000000000],%loadloss=1.127000000,%noloadloss=0.280000000
new transformer.368857 Phases=3,Windings=2,Buses=[BMT123169547.1.2.3 BBT1611413.1.2.3.0],Conns=[delta wye],kvs=[13.8 0.22],kvas=[45.000000000 45.000000000],Taps=[1,1.000000000],%loadloss=1.522000000,%noloadloss=0.377777778
new transformer.369060 Phases=3,Windings=2,Buses=[BMT123169750.1.2.3 BBT1615200.1.2.3.0],Conns=[delta wye],kvs=[13.8 0.22],kvas=[45.000000000 45.000000000],Taps=[1,1.000000000],%loadloss=1.522000000,%noloadloss=0.377777778
new transformer.369074 Phases=3,Windings=2,Buses=[BMT165880022.1.2.3 BBT1615291.1.2.3.0],Conns=[delta wye],kvs=[13.8 0.22],kvas=[45.000000000 45.000000000],Taps=[1,1.000000000],%loadloss=1.522000000,%noloadloss=0.377777778
new transformer.369109 Phases=3,Windings=2,Buses=[BMT123169568.1.2.3 BBT1615767.1.2.3.0],Conns=[delta wye],kvs=[13.8 0.22],kvas=[75.000000000 75.000000000],Taps=[1,1.000000000],%loadloss=1.340000000,%noloadloss=0.340000000
new transformer.369130 Phases=3,Windings=2,Buses=[BMT174633388.1.2.3 BBT1616103.1.2.3.0],Conns=[delta wye],kvs=[13.8 0.22],kvas=[75.000000000 75.000000000],Taps=[1,1.000000000],%loadloss=1.340000000,%noloadloss=0.340000000
new transformer.369228 Phases=3,Windings=2,Buses=[BMT156996522.1.2.3 BBT1617328.1.2.3.0],Conns=[delta wye],kvs=[13.8 0.22],kvas=[75.000000000 75.000000000],Taps=[1,1.000000000],%loadloss=1.340000000,%noloadloss=0.340000000
new transformer.391670 Phases=3,Windings=2,Buses=[BMT173870808.1.2.3 BBT1711254.1.2.3.0],Conns=[delta wye],kvs=[13.8 0.22],kvas=[100.000000000 100.000000000],Taps=[1,1.000000000],%loadloss=1.330000000,%noloadloss=0.390000000
new transformer.391691 Phases=3,Windings=2,Buses=[BMT172462190.1.2.3 BBT1711429.1.2.3.0],Conns=[delta wye],kvs=[13.8 0.22],kvas=[100.000000000 100.000000000],Taps=[1,1.000000000],%loadloss=1.330000000,%noloadloss=0.390000000
new transformer.393728 Phases=3,Windings=2,Buses=[BMT123169953.1.2.3 BBT1740577.1.2.3.0],Conns=[delta wye],kvs=[13.8 0.22],kvas=[75.000000000 75.000000000],Taps=[1,1.000000000],%loadloss=1.340000000,%noloadloss=0.340000000
new transformer.393749 Phases=3,Windings=2,Buses=[BMT176306799.1.2.3 BBT1740948.1.2.3.0],Conns=[delta wye],kvs=[13.8 0.22],kvas=[150.000000000 150.000000000],Taps=[1,1.000000000],%loadloss=1.127000000,%noloadloss=0.280000000
new transformer.393770 Phases=3,Windings=2,Buses=[BMT158112054.1.2.3 BBT1741088.1.2.3.0],Conns=[delta wye],kvs=[13.8 0.22],kvas=[45.000000000 45.000000000],Taps=[1,1.000000000],%loadloss=1.522000000,%noloadloss=0.377777778
new transformer.393777 Phases=3,Windings=2,Buses=[BMT123157794.1.2.3 BBT1741193.1.2.3.0],Conns=[delta wye],kvs=[13.8 0.22],kvas=[75.000000000 75.000000000],Taps=[1,1.000000000],%loadloss=1.340000000,%noloadloss=0.340000000
new transformer.393798 Phases=3,Windings=2,Buses=[BMT146672131.1.2.3 BBT1741529.1.2.3.0],Conns=[delta wye],kvs=[13.8 0.22],kvas=[150.000000000 150.000000000],Taps=[1,1.000000000],%loadloss=1.127000000,%noloadloss=0.280000000
new transformer.393819 Phases=3,Windings=2,Buses=[BMT169702612.1.2.3 BBT1741641.1.2.3.0],Conns=[delta wye],kvs=[13.8 0.22],kvas=[30.000000000 30.000000000],Taps=[1,1.000000000],%loadloss=1.667000000,%noloadloss=0.433333333
new transformer.393840 Phases=3,Windings=2,Buses=[BMT146672138.1.2.3 BBT1742152.1.2.3.0],Conns=[delta wye],kvs=[13.8 0.22],kvas=[100.000000000 100.000000000],Taps=[1,1.000000000],%loadloss=1.330000000,%noloadloss=0.390000000
new transformer.393861 Phases=3,Windings=2,Buses=[BMT149727127.1.2.3 BBT1742572.1.2.3.0],Conns=[delta wye],kvs=[13.8 0.22],kvas=[45.000000000 45.000000000],Taps=[1,1.000000000],%loadloss=1.522000000,%noloadloss=0.377777778
new transformer.393945 Phases=3,Windings=2,Buses=[BMT123169792.1.2.3 BBT1743769.1.2.3.0],Conns=[delta wye],kvs=[13.8 0.22],kvas=[30.000000000 30.000000000],Taps=[1,1.000000000],%loadloss=1.667000000,%noloadloss=0.433333333
new transformer.393959 Phases=3,Windings=2,Buses=[BMT123169911.1.2.3 BBT1743958.1.2.3.0],Conns=[delta wye],kvs=[13.8 0.22],kvas=[45.000000000 45.000000000],Taps=[1,1.000000000],%loadloss=1.522000000,%noloadloss=0.377777778
new transformer.394001 Phases=3,Windings=2,Buses=[BMT123170072.1.2.3 BBT1744560.1.2.3.0],Conns=[delta wye],kvs=[13.8 0.22],kvas=[75.000000000 75.000000000],Taps=[1,1.000000000],%loadloss=1.340000000,%noloadloss=0.340000000
new transformer.1041018 Phases=3,Windings=2,Buses=[BMT170809859.1.2.3 BBT105768590.1.2.3.0],Conns=[delta wye],kvs=[13.8 0.22],kvas=[250.000000000 250.000000000],Taps=[1,1.000000000],%loadloss=1.080000000,%noloadloss=0.249000000
new transformer.1056901 Phases=3,Windings=2,Buses=[BMT127584580.1.2.3 BBT127578056.1.2.3.0],Conns=[delta wye],kvs=[13.8 0.22],kvas=[75.000000000 75.000000000],Taps=[1,1.000000000],%loadloss=1.340000000,%noloadloss=0.340000000
new transformer.1086875 Phases=3,Windings=2,Buses=[BMT173870805.1.2.3 BBT138122044.1.2.3.0],Conns=[delta wye],kvs=[13.8 0.22],kvas=[150.000000000 150.000000000],Taps=[1,1.000000000],%loadloss=1.127000000,%noloadloss=0.280000000
new transformer.1403451 Phases=3,Windings=2,Buses=[BMT176306798.1.2.3 BBT151278583.1.2.3.0],Conns=[delta wye],kvs=[13.8 0.22],kvas=[150.000000000 150.000000000],Taps=[1,1.000000000],%loadloss=1.127000000,%noloadloss=0.280000000
new transformer.1423068 Phases=3,Windings=2,Buses=[BMT173870804.1.2.3 BBT155737209.1.2.3.0],Conns=[delta wye],kvs=[13.8 0.22],kvas=[150.000000000 150.000000000],Taps=[1,1.000000000],%loadloss=1.127000000,%noloadloss=0.280000000
new transformer.1434638 Phases=3,Windings=2,Buses=[BMT158119898.1.2.3 BBT158119902.1.2.3.0],Conns=[delta wye],kvs=[13.8 0.22],kvas=[250.000000000 250.000000000],Taps=[1,1.000000000],%loadloss=1.080000000,%noloadloss=0.249000000
new transformer.1502207 Phases=3,Windings=2,Buses=[BMT172462188.1.2.3 BBT172462018.1.2.3.0],Conns=[delta wye],kvs=[13.8 0.22],kvas=[250.000000000 250.000000000],Taps=[1,1.000000000],%loadloss=1.080000000,%noloadloss=0.249000000
new transformer.391047 Phases=3,Windings=2,Buses=[BMT172461990.1.2.3 BBT1702056.1.2.3.0],Conns=[delta wye],kvs=[13.8 0.22],kvas=[150.000000000 150.000000000],Taps=[1,1.000000000],%loadloss=1.127000000,%noloadloss=0.280000000
new transformer.393133 Phases=3,Windings=2,Buses=[BMT157975361.1.2.3 BBT1732170.1.2.3.0],Conns=[delta wye],kvs=[13.8 0.22],kvas=[100.000000000 100.000000000],Taps=[1,1.000000000],%loadloss=1.330000000,%noloadloss=0.390000000
new transformer.393147 Phases=3,Windings=2,Buses=[BMT149727125.1.2.3 BBT1732471.1.2.3.0],Conns=[delta wye],kvs=[13.8 0.22],kvas=[75.000000000 75.000000000],Taps=[1,1.000000000],%loadloss=1.340000000,%noloadloss=0.340000000
new transformer.393175 Phases=3,Windings=2,Buses=[BMT123157507.1.2.3 BBT1732982.1.2.3.0],Conns=[delta wye],kvs=[13.8 0.22],kvas=[75.000000000 75.000000000],Taps=[1,1.000000000],%loadloss=1.340000000,%noloadloss=0.340000000
new transformer.393231 Phases=3,Windings=2,Buses=[BMT123157535.1.2.3 BBT1733836.1.2.3.0],Conns=[delta wye],kvs=[13.8 0.22],kvas=[100.000000000 100.000000000],Taps=[1,1.000000000],%loadloss=1.330000000,%noloadloss=0.390000000
new transformer.393252 Phases=3,Windings=2,Buses=[BMT160673192.1.2.3 BBT1733983.1.2.3.0],Conns=[delta wye],kvs=[13.8 0.22],kvas=[75.000000000 75.000000000],Taps=[1,1.000000000],%loadloss=1.340000000,%noloadloss=0.340000000
new transformer.393287 Phases=3,Windings=2,Buses=[BMT123157500.1.2.3 BBT1734403.1.2.3.0],Conns=[delta wye],kvs=[13.8 0.22],kvas=[100.000000000 100.000000000],Taps=[1,1.000000000],%loadloss=1.330000000,%noloadloss=0.390000000
new transformer.393294 Phases=3,Windings=2,Buses=[BMT123157570.1.2.3 BBT1734550.1.2.3.0],Conns=[delta wye],kvs=[13.8 0.22],kvas=[150.000000000 150.000000000],Taps=[1,1.000000000],%loadloss=1.127000000,%noloadloss=0.280000000
new transformer.393336 Phases=3,Windings=2,Buses=[BMT123169967.1.2.3 BBT1734998.1.2.3.0],Conns=[delta wye],kvs=[13.8 0.22],kvas=[75.000000000 75.000000000],Taps=[1,1.000000000],%loadloss=1.340000000,%noloadloss=0.340000000
new transformer.393371 Phases=3,Windings=2,Buses=[BMT158119900.1.2.3 BBT1735201.1.2.3.0],Conns=[delta wye],kvs=[13.8 0.22],kvas=[225.000000000 225.000000000],Taps=[1,1.000000000],%loadloss=1.060000000,%noloadloss=0.248888889
new transformer.393420 Phases=3,Windings=2,Buses=[BMT175262233.1.2.3 BBT1735663.1.2.3.0],Conns=[delta wye],kvs=[13.8 0.22],kvas=[75.000000000 75.000000000],Taps=[1,1.000000000],%loadloss=1.340000000,%noloadloss=0.340000000
new transformer.393462 Phases=3,Windings=2,Buses=[BMT175512503.1.2.3 BBT1736265.1.2.3.0],Conns=[delta wye],kvs=[13.8 0.22],kvas=[100.000000000 100.000000000],Taps=[1,1.000000000],%loadloss=1.330000000,%noloadloss=0.390000000
new transformer.393476 Phases=3,Windings=2,Buses=[BMT123157493.1.2.3 BBT1736524.1.2.3.0],Conns=[delta wye],kvs=[13.8 0.22],kvas=[75.000000000 75.000000000],Taps=[1,1.000000000],%loadloss=1.340000000,%noloadloss=0.340000000
new transformer.393525 Phases=3,Windings=2,Buses=[BMT123157682.1.2.3 BBT1737581.1.2.3.0],Conns=[delta wye],kvs=[13.8 0.22],kvas=[75.000000000 75.000000000],Taps=[1,1.000000000],%loadloss=1.340000000,%noloadloss=0.340000000
new transformer.393672 Phases=3,Windings=2,Buses=[BMT176306431.1.2.3 BBT1739730.1.2.3.0],Conns=[delta wye],kvs=[13.8 0.22],kvas=[45.000000000 45.000000000],Taps=[1,1.000000000],%loadloss=1.522000000,%noloadloss=0.377777778
new transformer.393686 Phases=3,Windings=2,Buses=[BMT123169939.1.2.3 BBT1739884.1.2.3.0],Conns=[delta wye],kvs=[13.8 0.22],kvas=[45.000000000 45.000000000],Taps=[1,1.000000000],%loadloss=1.522000000,%noloadloss=0.377777778
new transformer.395562 Phases=3,Windings=2,Buses=[BMT164819801.1.2.3 BBT1759932.1.2.3.0],Conns=[delta wye],kvs=[13.8 0.22],kvas=[30.000000000 30.000000000],Taps=[1,1.000000000],%loadloss=1.667000000,%noloadloss=0.433333333
new transformer.1061913 Phases=3,Windings=2,Buses=[BMT129733629.1.2.3 BBT129722443.1.2.3.0],Conns=[delta wye],kvs=[13.8 0.22],kvas=[45.000000000 45.000000000],Taps=[1,1.000000000],%loadloss=1.522000000,%noloadloss=0.377777778
new transformer.1062207 Phases=3,Windings=2,Buses=[BMT149727128.1.2.3 BBT129830789.1.2.3.0],Conns=[delta wye],kvs=[13.8 0.22],kvas=[100.000000000 100.000000000],Taps=[1,1.000000000],%loadloss=1.330000000,%noloadloss=0.390000000
new transformer.1417043 Phases=3,Windings=2,Buses=[BMT173870801.1.2.3 BBT154409545.1.2.3.0],Conns=[delta wye],kvs=[13.8 0.22],kvas=[75.000000000 75.000000000],Taps=[1,1.000000000],%loadloss=1.340000000,%noloadloss=0.340000000
new transformer.1472322 Phases=3,Windings=2,Buses=[BMT170809858.1.2.3 BBT166785621.1.2.3.0],Conns=[delta wye],kvs=[13.8 0.22],kvas=[150.000000000 150.000000000],Taps=[1,1.000000000],%loadloss=1.127000000,%noloadloss=0.280000000
new transformer.1510384 Phases=3,Windings=2,Buses=[BMT174293097.1.2.3 BBT174292777.1.2.3.0],Conns=[delta wye],kvs=[13.8 0.22],kvas=[75.000000000 75.000000000],Taps=[1,1.000000000],%loadloss=1.340000000,%noloadloss=0.340000000
new transformer.392468 Phases=3,Windings=2,Buses=[BMT123157213.1.2.3 BBT1722118.1.2.3.0],Conns=[delta wye],kvs=[13.8 0.22],kvas=[100.000000000 100.000000000],Taps=[1,1.000000000],%loadloss=1.330000000,%noloadloss=0.390000000
new transformer.392496 Phases=3,Windings=2,Buses=[BMT170809852.1.2.3 BBT1722741.1.2.3.0],Conns=[delta wye],kvs=[13.8 0.22],kvas=[150.000000000 150.000000000],Taps=[1,1.000000000],%loadloss=1.127000000,%noloadloss=0.280000000
new transformer.392552 Phases=3,Windings=2,Buses=[BMT165220311.1.2.3 BBT1723154.1.2.3.0],Conns=[delta wye],kvs=[13.8 0.22],kvas=[75.000000000 75.000000000],Taps=[1,1.000000000],%loadloss=1.340000000,%noloadloss=0.340000000
new transformer.392559 Phases=3,Windings=2,Buses=[BMT168793571.1.2.3 BBT1723259.1.2.3.0],Conns=[delta wye],kvs=[13.8 0.22],kvas=[75.000000000 75.000000000],Taps=[1,1.000000000],%loadloss=1.340000000,%noloadloss=0.340000000
new transformer.392804 Phases=3,Windings=2,Buses=[BMT173870809.1.2.3 BBT1727739.1.2.3.0],Conns=[delta wye],kvs=[13.8 0.22],kvas=[100.000000000 100.000000000],Taps=[1,1.000000000],%loadloss=1.330000000,%noloadloss=0.390000000
new transformer.392874 Phases=3,Windings=2,Buses=[BMT173870800.1.2.3 BBT1728579.1.2.3.0],Conns=[delta wye],kvs=[13.8 0.22],kvas=[100.000000000 100.000000000],Taps=[1,1.000000000],%loadloss=1.330000000,%noloadloss=0.390000000
new transformer.392881 Phases=3,Windings=2,Buses=[BMT161015564.1.2.3 BBT1728593.1.2.3.0],Conns=[delta wye],kvs=[13.8 0.22],kvas=[75.000000000 75.000000000],Taps=[1,1.000000000],%loadloss=1.340000000,%noloadloss=0.340000000
new transformer.392902 Phases=3,Windings=2,Buses=[BMT123157423.1.2.3 BBT1728922.1.2.3.0],Conns=[delta wye],kvs=[13.8 0.22],kvas=[75.000000000 75.000000000],Taps=[1,1.000000000],%loadloss=1.340000000,%noloadloss=0.340000000
new transformer.392916 Phases=3,Windings=2,Buses=[BMT123169806.1.2.3 BBT1728978.1.2.3.0],Conns=[delta wye],kvs=[13.8 0.22],kvas=[45.000000000 45.000000000],Taps=[1,1.000000000],%loadloss=1.522000000,%noloadloss=0.377777778
new transformer.392923 Phases=3,Windings=2,Buses=[BMT123157521.1.2.3 BBT1729083.1.2.3.0],Conns=[delta wye],kvs=[13.8 0.22],kvas=[150.000000000 150.000000000],Taps=[1,1.000000000],%loadloss=1.127000000,%noloadloss=0.280000000
new transformer.392986 Phases=3,Windings=2,Buses=[BMT146672145.1.2.3 BBT1730273.1.2.3.0],Conns=[delta wye],kvs=[13.8 0.22],kvas=[75.000000000 75.000000000],Taps=[1,1.000000000],%loadloss=1.340000000,%noloadloss=0.340000000
new transformer.393014 Phases=3,Windings=2,Buses=[BMT160673197.1.2.3 BBT1730413.1.2.3.0],Conns=[delta wye],kvs=[13.8 0.22],kvas=[150.000000000 150.000000000],Taps=[1,1.000000000],%loadloss=1.127000000,%noloadloss=0.280000000
new transformer.393028 Phases=3,Windings=2,Buses=[BMT123157304.1.2.3 BBT1730707.1.2.3.0],Conns=[delta wye],kvs=[13.8 0.22],kvas=[100.000000000 100.000000000],Taps=[1,1.000000000],%loadloss=1.330000000,%noloadloss=0.390000000
new transformer.393042 Phases=3,Windings=2,Buses=[BMT175262234.1.2.3 BBT1731001.1.2.3.0],Conns=[delta wye],kvs=[13.8 0.22],kvas=[75.000000000 75.000000000],Taps=[1,1.000000000],%loadloss=1.340000000,%noloadloss=0.340000000
new transformer.393049 Phases=3,Windings=2,Buses=[BMT155085361.1.2.3 BBT1731148.1.2.3.0],Conns=[delta wye],kvs=[13.8 0.22],kvas=[100.000000000 100.000000000],Taps=[1,1.000000000],%loadloss=1.330000000,%noloadloss=0.390000000
new transformer.395870 Phases=3,Windings=2,Buses=[BMT161025955.1.2.3 BBT1761080.1.2.3.0],Conns=[delta wye],kvs=[13.8 0.22],kvas=[45.000000000 45.000000000],Taps=[1,1.000000000],%loadloss=1.522000000,%noloadloss=0.377777778
new transformer.396024 Phases=3,Windings=2,Buses=[BMT123169505.1.2.3 BBT1761626.1.2.3.0],Conns=[delta wye],kvs=[13.8 0.22],kvas=[45.000000000 45.000000000],Taps=[1,1.000000000],%loadloss=1.522000000,%noloadloss=0.377777778
new transformer.396745 Phases=3,Windings=2,Buses=[BMT160841560.1.2.3 BBT1764909.1.2.3.0],Conns=[delta wye],kvs=[13.8 0.22],kvas=[75.000000000 75.000000000],Taps=[1,1.000000000],%loadloss=1.340000000,%noloadloss=0.340000000
new transformer.396801 Phases=3,Windings=2,Buses=[BMT174633390.1.2.3 BBT1765126.1.2.3.0],Conns=[delta wye],kvs=[13.8 0.22],kvas=[150.000000000 150.000000000],Taps=[1,1.000000000],%loadloss=1.127000000,%noloadloss=0.280000000
new transformer.399888 Phases=3,Windings=2,Buses=[BMT123169407.1.2.3 BBT1776991.1.2.3.0],Conns=[delta wye],kvs=[13.8 0.22],kvas=[75.000000000 75.000000000],Taps=[1,1.000000000],%loadloss=1.340000000,%noloadloss=0.340000000
new transformer.445948 Phases=3,Windings=2,Buses=[BMT165219067.1.2.3 BBT2001502.1.2.3.0],Conns=[delta wye],kvs=[13.8 0.22],kvas=[45.000000000 45.000000000],Taps=[1,1.000000000],%loadloss=1.522000000,%noloadloss=0.377777778
new transformer.451576 Phases=3,Windings=2,Buses=[BMT174293098.1.2.3 BBT2019758.1.2.3.0],Conns=[delta wye],kvs=[13.8 0.22],kvas=[45.000000000 45.000000000],Taps=[1,1.000000000],%loadloss=1.522000000,%noloadloss=0.377777778
new transformer.451737 Phases=3,Windings=2,Buses=[BMT123169575.1.2.3 BBT2020234.1.2.3.0],Conns=[delta wye],kvs=[13.8 0.22],kvas=[45.000000000 45.000000000],Taps=[1,1.000000000],%loadloss=1.522000000,%noloadloss=0.377777778
new transformer.497321 Phases=3,Windings=2,Buses=[BMT164786527.1.2.3 BBT2322116.1.2.3.0],Conns=[delta wye],kvs=[13.8 0.22],kvas=[45.000000000 45.000000000],Taps=[1,1.000000000],%loadloss=1.522000000,%noloadloss=0.377777778
new transformer.497342 Phases=3,Windings=2,Buses=[BMT164787261.1.2.3 BBT2322452.1.2.3.0],Conns=[delta wye],kvs=[13.8 0.22],kvas=[45.000000000 45.000000000],Taps=[1,1.000000000],%loadloss=1.522000000,%noloadloss=0.377777778
new transformer.499260 Phases=3,Windings=2,Buses=[BMT165219072.1.2.3 BBT2331923.1.2.3.0],Conns=[delta wye],kvs=[13.8 0.22],kvas=[100.000000000 100.000000000],Taps=[1,1.000000000],%loadloss=1.330000000,%noloadloss=0.390000000
new transformer.394064 Phases=3,Windings=2,Buses=[BMT169702616.1.2.3 BBT1745442.1.2.3.0],Conns=[delta wye],kvs=[13.8 0.22],kvas=[45.000000000 45.000000000],Taps=[1,1.000000000],%loadloss=1.522000000,%noloadloss=0.377777778
new transformer.394106 Phases=3,Windings=2,Buses=[BMT157708202.1.2.3 BBT1746121.1.2.3.0],Conns=[delta wye],kvs=[13.8 0.22],kvas=[100.000000000 100.000000000],Taps=[1,1.000000000],%loadloss=1.330000000,%noloadloss=0.390000000
new transformer.394211 Phases=3,Windings=2,Buses=[BMT156996520.1.2.3 BBT1747500.1.2.3.0],Conns=[delta wye],kvs=[13.8 0.22],kvas=[75.000000000 75.000000000],Taps=[1,1.000000000],%loadloss=1.340000000,%noloadloss=0.340000000
new transformer.394260 Phases=3,Windings=2,Buses=[BMT165880021.1.2.3 BBT1748361.1.2.3.0],Conns=[delta wye],kvs=[13.8 0.22],kvas=[45.000000000 45.000000000],Taps=[1,1.000000000],%loadloss=1.522000000,%noloadloss=0.377777778
new transformer.394274 Phases=3,Windings=2,Buses=[BMT123169617.1.2.3 BBT1748473.1.2.3.0],Conns=[delta wye],kvs=[13.8 0.22],kvas=[75.000000000 75.000000000],Taps=[1,1.000000000],%loadloss=1.340000000,%noloadloss=0.340000000
new transformer.394288 Phases=3,Windings=2,Buses=[BMT123157850.1.2.3 BBT1748830.1.2.3.0],Conns=[delta wye],kvs=[13.8 0.22],kvas=[45.000000000 45.000000000],Taps=[1,1.000000000],%loadloss=1.522000000,%noloadloss=0.377777778
new transformer.396913 Phases=3,Windings=2,Buses=[BMT161025956.1.2.3 BBT1765644.1.2.3.0],Conns=[delta wye],kvs=[13.8 0.22],kvas=[150.000000000 150.000000000],Taps=[1,1.000000000],%loadloss=1.127000000,%noloadloss=0.280000000
new transformer.400287 Phases=3,Windings=2,Buses=[BMT160841563.1.2.3 BBT1778258.1.2.3.0],Conns=[delta wye],kvs=[13.8 0.22],kvas=[45.000000000 45.000000000],Taps=[1,1.000000000],%loadloss=1.522000000,%noloadloss=0.377777778
new transformer.488767 Phases=3,Windings=2,Buses=[BMT165219071.1.2.3 BBT2279409.1.2.3.0],Conns=[delta wye],kvs=[13.8 0.22],kvas=[75.000000000 75.000000000],Taps=[1,1.000000000],%loadloss=1.340000000,%noloadloss=0.340000000
new transformer.530725 Phases=3,Windings=2,Buses=[BMT165220477.1.2.3 BBT2460254.1.2.3.0],Conns=[delta wye],kvs=[13.8 0.22],kvas=[150.000000000 150.000000000],Taps=[1,1.000000000],%loadloss=1.127000000,%noloadloss=0.280000000
new transformer.394407 Phases=3,Windings=2,Buses=[BMT123169729.1.2.3 BBT1750776.1.2.3.0],Conns=[delta wye],kvs=[13.8 0.22],kvas=[45.000000000 45.000000000],Taps=[1,1.000000000],%loadloss=1.522000000,%noloadloss=0.377777778
new transformer.394491 Phases=3,Windings=2,Buses=[BMT123157899.1.2.3 BBT1752001.1.2.3.0],Conns=[delta wye],kvs=[13.8 0.22],kvas=[30.000000000 30.000000000],Taps=[1,1.000000000],%loadloss=1.667000000,%noloadloss=0.433333333
new transformer.394498 Phases=3,Windings=2,Buses=[BMT123157864.1.2.3 BBT1752064.1.2.3.0],Conns=[delta wye],kvs=[13.8 0.22],kvas=[30.000000000 30.000000000],Taps=[1,1.000000000],%loadloss=1.667000000,%noloadloss=0.433333333
new transformer.394589 Phases=3,Windings=2,Buses=[BMT123169722.1.2.3 BBT1753415.1.2.3.0],Conns=[delta wye],kvs=[13.8 0.22],kvas=[75.000000000 75.000000000],Taps=[1,1.000000000],%loadloss=1.340000000,%noloadloss=0.340000000
new transformer.394603 Phases=3,Windings=2,Buses=[BMT123157843.1.2.3 BBT1753730.1.2.3.0],Conns=[delta wye],kvs=[13.8 0.22],kvas=[100.000000000 100.000000000],Taps=[1,1.000000000],%loadloss=1.330000000,%noloadloss=0.390000000
new transformer.394610 Phases=3,Windings=2,Buses=[BMT123169596.1.2.3 BBT1753877.1.2.3.0],Conns=[delta wye],kvs=[13.8 0.22],kvas=[45.000000000 45.000000000],Taps=[1,1.000000000],%loadloss=1.522000000,%noloadloss=0.377777778
new transformer.394638 Phases=3,Windings=2,Buses=[BMT123170058.1.2.3 BBT1754311.1.2.3.0],Conns=[delta wye],kvs=[13.8 0.22],kvas=[75.000000000 75.000000000],Taps=[1,1.000000000],%loadloss=1.340000000,%noloadloss=0.340000000
new transformer.394652 Phases=3,Windings=2,Buses=[BMT123169743.1.2.3 BBT1754458.1.2.3.0],Conns=[delta wye],kvs=[13.8 0.22],kvas=[45.000000000 45.000000000],Taps=[1,1.000000000],%loadloss=1.522000000,%noloadloss=0.377777778
new transformer.394771 Phases=3,Windings=2,Buses=[BMT123157871.1.2.3 BBT1755704.1.2.3.0],Conns=[delta wye],kvs=[13.8 0.22],kvas=[30.000000000 30.000000000],Taps=[1,1.000000000],%loadloss=1.667000000,%noloadloss=0.433333333
new transformer.394785 Phases=3,Windings=2,Buses=[BMT123157913.1.2.3 BBT1755900.1.2.3.0],Conns=[delta wye],kvs=[13.8 0.22],kvas=[45.000000000 45.000000000],Taps=[1,1.000000000],%loadloss=1.522000000,%noloadloss=0.377777778
new transformer.401512 Phases=3,Windings=2,Buses=[BMT174491636.1.2.3 BBT1787120.1.2.3.0],Conns=[delta wye],kvs=[13.8 0.22],kvas=[45.000000000 45.000000000],Taps=[1,1.000000000],%loadloss=1.522000000,%noloadloss=0.377777778
new transformer.401596 Phases=3,Windings=2,Buses=[BMT123158263.1.2.3 BBT1787890.1.2.3.0],Conns=[delta wye],kvs=[13.8 0.22],kvas=[75.000000000 75.000000000],Taps=[1,1.000000000],%loadloss=1.340000000,%noloadloss=0.340000000
new transformer.401736 Phases=3,Windings=2,Buses=[BMT161025957.1.2.3 BBT1789024.1.2.3.0],Conns=[delta wye],kvs=[13.8 0.22],kvas=[75.000000000 75.000000000],Taps=[1,1.000000000],%loadloss=1.340000000,%noloadloss=0.340000000
new transformer.401960 Phases=3,Windings=2,Buses=[BMT174491924.1.2.3 BBT1791054.1.2.3.0],Conns=[delta wye],kvs=[13.8 0.22],kvas=[100.000000000 100.000000000],Taps=[1,1.000000000],%loadloss=1.330000000,%noloadloss=0.390000000
new transformer.402695 Phases=3,Windings=2,Buses=[BMT123169393.1.2.3 BBT1796437.1.2.3.0],Conns=[delta wye],kvs=[13.8 0.22],kvas=[45.000000000 45.000000000],Taps=[1,1.000000000],%loadloss=1.522000000,%noloadloss=0.377777778
new transformer.402919 Phases=3,Windings=2,Buses=[BMT123169365.1.2.3 BBT1798159.1.2.3.0],Conns=[delta wye],kvs=[13.8 0.22],kvas=[30.000000000 30.000000000],Taps=[1,1.000000000],%loadloss=1.667000000,%noloadloss=0.433333333
new transformer.402982 Phases=3,Windings=2,Buses=[BMT174491642.1.2.3 BBT1798600.1.2.3.0],Conns=[delta wye],kvs=[13.8 0.22],kvas=[75.000000000 75.000000000],Taps=[1,1.000000000],%loadloss=1.340000000,%noloadloss=0.340000000
new transformer.403262 Phases=3,Windings=2,Buses=[BMT174104825.1.2.3 BBT1800126.1.2.3.0],Conns=[delta wye],kvs=[13.8 0.22],kvas=[45.000000000 45.000000000],Taps=[1,1.000000000],%loadloss=1.522000000,%noloadloss=0.377777778
new transformer.419033 Phases=3,Windings=2,Buses=[BMT164819807.1.2.3 BBT1924159.1.2.3.0],Conns=[delta wye],kvs=[13.8 0.22],kvas=[45.000000000 45.000000000],Taps=[1,1.000000000],%loadloss=1.522000000,%noloadloss=0.377777778
new transformer.419173 Phases=3,Windings=2,Buses=[BMT123169498.1.2.3 BBT1925160.1.2.3.0],Conns=[delta wye],kvs=[13.8 0.22],kvas=[45.000000000 45.000000000],Taps=[1,1.000000000],%loadloss=1.522000000,%noloadloss=0.377777778
new transformer.495823 Phases=3,Windings=2,Buses=[BMT165219068.1.2.3 BBT2311651.1.2.3.0],Conns=[delta wye],kvs=[13.8 0.22],kvas=[75.000000000 75.000000000],Taps=[1,1.000000000],%loadloss=1.340000000,%noloadloss=0.340000000
new transformer.826783 Phases=3,Windings=2,Buses=[BMT147655421.1.2.3 BBT5367704.1.2.3.0],Conns=[delta wye],kvs=[13.8 0.22],kvas=[45.000000000 45.000000000],Taps=[1,1.000000000],%loadloss=1.522000000,%noloadloss=0.377777778
new transformer.400840 Phases=3,Windings=2,Buses=[BMT147655393.1.2.3 BBT1781142.1.2.3.0],Conns=[delta wye],kvs=[13.8 0.22],kvas=[45.000000000 45.000000000],Taps=[1,1.000000000],%loadloss=1.522000000,%noloadloss=0.377777778
new transformer.400994 Phases=3,Windings=2,Buses=[BMT129733615.1.2.3 BBT1782269.1.2.3.0],Conns=[delta wye],kvs=[13.8 0.22],kvas=[45.000000000 45.000000000],Taps=[1,1.000000000],%loadloss=1.522000000,%noloadloss=0.377777778
new transformer.401190 Phases=3,Windings=2,Buses=[BMT123169344.1.2.3 BBT1784124.1.2.3.0],Conns=[delta wye],kvs=[13.8 0.22],kvas=[75.000000000 75.000000000],Taps=[1,1.000000000],%loadloss=1.340000000,%noloadloss=0.340000000
new transformer.401260 Phases=3,Windings=2,Buses=[BMT123169351.1.2.3 BBT1784824.1.2.3.0],Conns=[delta wye],kvs=[13.8 0.22],kvas=[30.000000000 30.000000000],Taps=[1,1.000000000],%loadloss=1.667000000,%noloadloss=0.433333333
new transformer.403486 Phases=3,Windings=2,Buses=[BMT147655372.1.2.3 BBT1801414.1.2.3.0],Conns=[delta wye],kvs=[13.8 0.22],kvas=[75.000000000 75.000000000],Taps=[1,1.000000000],%loadloss=1.340000000,%noloadloss=0.340000000
new transformer.403570 Phases=3,Windings=2,Buses=[BMT123169330.1.2.3 BBT1802079.1.2.3.0],Conns=[delta wye],kvs=[13.8 0.22],kvas=[30.000000000 30.000000000],Taps=[1,1.000000000],%loadloss=1.667000000,%noloadloss=0.433333333
new transformer.403780 Phases=3,Windings=2,Buses=[BMT123158396.1.2.3 BBT1803416.1.2.3.0],Conns=[delta wye],kvs=[13.8 0.22],kvas=[30.000000000 30.000000000],Taps=[1,1.000000000],%loadloss=1.667000000,%noloadloss=0.433333333
new transformer.403857 Phases=3,Windings=2,Buses=[BMT123169372.1.2.3 BBT1803969.1.2.3.0],Conns=[delta wye],kvs=[13.8 0.22],kvas=[45.000000000 45.000000000],Taps=[1,1.000000000],%loadloss=1.522000000,%noloadloss=0.377777778
new transformer.420048 Phases=3,Windings=2,Buses=[BMT164819799.1.2.3 BBT1931929.1.2.3.0],Conns=[delta wye],kvs=[13.8 0.22],kvas=[45.000000000 45.000000000],Taps=[1,1.000000000],%loadloss=1.522000000,%noloadloss=0.377777778
new transformer.420069 Phases=3,Windings=2,Buses=[BMT164819803.1.2.3 BBT1932076.1.2.3.0],Conns=[delta wye],kvs=[13.8 0.22],kvas=[30.000000000 30.000000000],Taps=[1,1.000000000],%loadloss=1.667000000,%noloadloss=0.433333333
new transformer.422673 Phases=3,Windings=2,Buses=[BMT156996521.1.2.3 BBT1947917.1.2.3.0],Conns=[delta wye],kvs=[13.8 0.22],kvas=[45.000000000 45.000000000],Taps=[1,1.000000000],%loadloss=1.522000000,%noloadloss=0.377777778
new transformer.634612 Phases=3,Windings=2,Buses=[BMT154265029.1.2.3 BBT3305504.1.2.3.0],Conns=[delta wye],kvs=[13.8 0.22],kvas=[75.000000000 75.000000000],Taps=[1,1.000000000],%loadloss=1.340000000,%noloadloss=0.340000000
new transformer.871842 Phases=3,Windings=2,Buses=[BMT123169610.1.2.3 BBT14432102.1.2.3.0],Conns=[delta wye],kvs=[13.8 0.22],kvas=[45.000000000 45.000000000],Taps=[1,1.000000000],%loadloss=1.522000000,%noloadloss=0.377777778
