2024_89_CemigReconfigurationCases/1_AlimsCemig/MCLU14/MCLU14SegmentosBT.dss
new line.10090198 bus1=BBT147655449.1.2.3.0,bus2=BBT147655456.1.2.3.0,Phases=3,Linecode=BT518_BT518_7_3_1,Length=0.000501000,Units=km
new line.10090254 bus1=BBT147655456.1.2.3.0,bus2=BBT147655911.1.2.3.0,Phases=3,Linecode=BT803_BT803_4_3_4,Length=0.024419000,Units=km
new line.10090275 bus1=BBT147655456.1.2.3.0,bus2=BBT147656149.1.2.3.0,Phases=3,Linecode=BT803_BT803_4_3_4,Length=0.024419000,Units=km
new line.10090289 bus1=BBT147656149.1.2.3.0,bus2=BBT147656170.1.2.3.0,Phases=3,Linecode=BT803_BT803_4_3_4,Length=0.016647000,Units=km
new line.10090457 bus1=BBT147656149.1.2.3.0,bus2=BBT147657619.1.2.3.0,Phases=3,Linecode=BT803_BT803_4_3_4,Length=0.039124000,Units=km
new line.10090464 bus1=BBT147657619.1.2.3.0,bus2=BBT147657927.1.2.3.0,Phases=3,Linecode=BT803_BT803_4_3_4,Length=0.038022000,Units=km
new line.10090478 bus1=BBT147657927.1.2.3.0,bus2=BBT147657941.1.2.3.0,Phases=3,Linecode=BT803_BT803_4_3_4,Length=0.038842000,Units=km
new line.1490754 bus1=BBT1608529.1.2.3.0,bus2=BBT1608508.1.2.3.0,Phases=3,Linecode=BT108_BT107_7_3_1,Length=0.038022000,Units=km
new line.1490761 bus1=BBT1608543.1.2.3.0,bus2=BBT1608515.1.2.3.0,Phases=3,Linecode=BT810_BT810_4_3_4,Length=0.034213000,Units=km
new line.1490768 bus1=BBT1608543.1.2.3.0,bus2=BBT1608571.1.2.3.0,Phases=3,Linecode=BT803_BT803_4_3_4,Length=0.033023000,Units=km
new line.1490775 bus1=BBT1608585.1.2.3.0,bus2=BBT1608543.1.2.3.0,Phases=3,Linecode=BT803_BT803_4_3_4,Length=0.035236000,Units=km
new line.1490782 bus1=BBT1608557.1.2.3.0,bus2=BBT1608529.1.2.3.0,Phases=3,Linecode=BT108_BT107_7_3_1,Length=0.030813000,Units=km
new line.1490789 bus1=BBT1608431.1.2.3.0,bus2=BBT1608557.1.2.3.0,Phases=3,Linecode=BT307_BT307_7_3_1,Length=0.000501000,Units=km
new line.1490796 bus1=BBT1608557.1.2.3.0,bus2=BBT1608599.1.2.3.0,Phases=3,Linecode=BT108_BT107_7_3_1,Length=0.031630000,Units=km
new line.1490803 bus1=BBT1608564.1.2.3.0,bus2=BBT1608718.1.2.3.0,Phases=3,Linecode=BT803_BT803_4_3_4,Length=0.015268000,Units=km
new line.1490810 bus1=BBT1608571.1.2.3.0,bus2=BBT1608683.1.2.3.0,Phases=3,Linecode=BT803_BT803_4_3_4,Length=0.032457000,Units=km
new line.1490817 bus1=BBT1608578.1.2.3.0,bus2=BBT1608606.1.2.3.0,Phases=3,Linecode=BT803_BT803_4_3_4,Length=0.034417000,Units=km
new line.1490824 bus1=BBT1608585.1.2.3.0,bus2=BBT1608613.1.2.3.0,Phases=3,Linecode=BT803_BT803_4_3_4,Length=0.031630000,Units=km
new line.1490831 bus1=BBT1608592.1.2.3.0,bus2=BBT1608564.1.2.3.0,Phases=3,Linecode=BT803_BT803_4_3_4,Length=0.036409000,Units=km
new line.1490838 bus1=BBT1608599.1.2.3.0,bus2=BBT1608704.1.2.3.0,Phases=3,Linecode=BT108_BT107_7_3_1,Length=0.015004000,Units=km
new line.1490845 bus1=BBT1608641.1.2.3.0,bus2=BBT127578126.1.2.3.0,Phases=3,Linecode=BT810_BT810_4_3_4,Length=0.036628000,Units=km
new line.1490852 bus1=BBT1608627.1.2.3.0,bus2=BBT1608648.1.2.3.0,Phases=3,Linecode=BT106_BT106_7_3_1,Length=0.033846000,Units=km
new line.1490859 bus1=BBT1608613.1.2.3.0,bus2=BBT1608634.1.2.3.0,Phases=3,Linecode=BT803_BT803_4_3_4,Length=0.029418000,Units=km
new line.1490866 bus1=BBT1608697.1.2.3.0,bus2=BBT1608641.1.2.3.0,Phases=3,Linecode=BT810_BT810_4_3_4,Length=0.017209000,Units=km
new line.1490873 bus1=BBT1608648.1.2.3.0,bus2=BBT1608669.1.2.3.0,Phases=3,Linecode=BT106_BT106_7_3_1,Length=0.032210000,Units=km
new line.1490880 bus1=BBT1608655.1.2.3.0,bus2=BBT93902414.1.2.3.0,Phases=3,Linecode=BT810_BT810_4_3_4,Length=0.031630000,Units=km
new line.1490887 bus1=BBT1608662.1.2.3.0,bus2=BBT5210386.1.2.3.0,Phases=3,Linecode=BT810_BT810_4_3_4,Length=0.028607000,Units=km
new line.1490894 bus1=BBT5210386.1.2.3.0,bus2=BBT5210393.1.2.3.0,Phases=3,Linecode=BT810_BT810_4_3_4,Length=0.023436000,Units=km
new line.1490901 bus1=BBT1608634.1.2.3.0,bus2=BBT1608697.1.2.3.0,Phases=3,Linecode=BT803_BT803_4_3_4,Length=0.016647000,Units=km
new line.1490908 bus1=BBT1608697.1.2.3.0,bus2=BBT1608655.1.2.3.0,Phases=3,Linecode=BT803_BT803_4_3_4,Length=0.014216000,Units=km
new line.1490915 bus1=BBT1608697.1.2.3.0,bus2=BBT1608662.1.2.3.0,Phases=3,Linecode=BT810_BT810_4_3_4,Length=0.018606000,Units=km
new line.1490922 bus1=BBT1608704.1.2.3.0,bus2=BBT1608592.1.2.3.0,Phases=3,Linecode=BT803_BT803_4_3_4,Length=0.025006000,Units=km
new line.1490929 bus1=BBT1608704.1.2.3.0,bus2=BBT1608620.1.2.3.0,Phases=3,Linecode=BT803_BT803_4_3_4,Length=0.010003000,Units=km
new line.1490936 bus1=BBT1608704.1.2.3.0,bus2=BBT1608627.1.2.3.0,Phases=3,Linecode=BT108_BT107_7_3_1,Length=0.014426000,Units=km
new line.1490943 bus1=BBT1608711.1.2.3.0,bus2=BBT1608459.1.2.3.0,Phases=3,Linecode=BT803_BT803_4_3_4,Length=0.007812000,Units=km
new line.1490950 bus1=BBT1608711.1.2.3.0,bus2=BBT1608466.1.2.3.0,Phases=3,Linecode=BT803_BT803_4_3_4,Length=0.006710000,Units=km
new line.1490957 bus1=BBT1608711.1.2.3.0,bus2=BBT1608494.1.2.3.0,Phases=3,Linecode=BT803_BT803_4_3_4,Length=0.032023000,Units=km
new line.1490964 bus1=BBT1608718.1.2.3.0,bus2=BBT1608550.1.2.3.0,Phases=3,Linecode=BT803_BT803_4_3_4,Length=0.017809000,Units=km
new line.1490971 bus1=BBT1608718.1.2.3.0,bus2=BBT1608536.1.2.3.0,Phases=3,Linecode=BT803_BT803_4_3_4,Length=0.016405000,Units=km
new line.1490978 bus1=BBT1608718.1.2.3.0,bus2=BBT1608578.1.2.3.0,Phases=3,Linecode=BT803_BT803_4_3_4,Length=0.017809000,Units=km
new line.1492028 bus1=BBT1609796.1.2.3.0,bus2=BBT1609789.1.2.3.0,Phases=3,Linecode=BT107_BT107_7_3_1,Length=0.035059000,Units=km
new line.1492035 bus1=BBT1609803.1.2.3.0,bus2=BBT1609796.1.2.3.0,Phases=3,Linecode=BT107_BT107_7_3_1,Length=0.028660000,Units=km
new line.1492042 bus1=BBT1609817.1.2.3.0,bus2=BBT1609803.1.2.3.0,Phases=3,Linecode=BT107_BT107_7_3_1,Length=0.029267000,Units=km
new line.1492049 bus1=BBT1609817.1.2.3.0,bus2=BBT1609810.1.2.3.0,Phases=3,Linecode=BT108_BT107_7_3_1,Length=0.035236000,Units=km
new line.1492056 bus1=BBT1609824.1.2.3.0,bus2=BBT5008926.1.2.3.0,Phases=3,Linecode=BT810_BT810_4_3_4,Length=0.044100000,Units=km
new line.1492063 bus1=BBT1609831.1.2.3.0,bus2=BBT1609817.1.2.3.0,Phases=3,Linecode=BT108_BT107_7_3_1,Length=0.027809000,Units=km
new line.1492070 bus1=BBT1609838.1.2.3.0,bus2=BBT1609831.1.2.3.0,Phases=3,Linecode=BT108_BT107_7_3_1,Length=0.030813000,Units=km
new line.1492077 bus1=BBT1609782.1.2.3.0,bus2=BBT1609838.1.2.3.0,Phases=3,Linecode=BT518_BT518_7_3_1,Length=0.000501000,Units=km
new line.1492084 bus1=BBT1609838.1.2.3.0,bus2=BBT1609859.1.2.3.0,Phases=3,Linecode=BT108_BT107_7_3_1,Length=0.020620000,Units=km
new line.1492091 bus1=BBT2925390.1.2.3.0,bus2=BBT1609824.1.2.3.0,Phases=3,Linecode=BT106_BT106_7_3_1,Length=0.035054000,Units=km
new line.1492098 bus1=BBT1609845.1.2.3.0,bus2=BBT2925390.1.2.3.0,Phases=3,Linecode=BT106_BT106_7_3_1,Length=0.009494000,Units=km
new line.1492105 bus1=BBT1609845.1.2.3.0,bus2=BBT1609852.1.2.3.0,Phases=3,Linecode=BT108_BT107_7_3_1,Length=0.024419000,Units=km
new line.1492112 bus1=BBT1610265.1.2.3.0,bus2=BBT1610272.1.2.3.0,Phases=3,Linecode=BT805_BT805_4_3_4,Length=0.043611000,Units=km
new line.1492126 bus1=BBT1609859.1.2.3.0,bus2=BBT1609845.1.2.3.0,Phases=3,Linecode=BT108_BT107_7_3_1,Length=0.008605000,Units=km
new line.1492168 bus1=BBT1609915.1.2.3.0,bus2=BBT1609901.1.2.3.0,Phases=3,Linecode=BT810_BT810_4_3_4,Length=0.035683000,Units=km
new line.1492175 bus1=BBT1609922.1.2.3.0,bus2=BBT1609908.1.2.3.0,Phases=3,Linecode=BT803_BT803_4_3_4,Length=0.029418000,Units=km
new line.1492182 bus1=BBT1609929.1.2.3.0,bus2=BBT2908345.1.2.3.0,Phases=3,Linecode=BT803_BT803_4_3_4,Length=0.005002000,Units=km
new line.1489487 bus1=BBT1617405.1.2.3.0,bus2=BBT1617370.1.2.3.0,Phases=3,Linecode=BT803_BT803_4_3_4,Length=0.029418000,Units=km
new line.1489494 bus1=BBT1617405.1.2.3.0,bus2=BBT1617426.1.2.3.0,Phases=3,Linecode=BT803_BT803_4_3_4,Length=0.035008000,Units=km
new line.1489501 bus1=BBT1607339.1.2.3.0,bus2=BBT1607332.1.2.3.0,Phases=3,Linecode=BT803_BT803_4_3_4,Length=0.025245000,Units=km
new line.1489508 bus1=BBT1607346.1.2.3.0,bus2=BBT1607325.1.2.3.0,Phases=3,Linecode=BT803_BT803_4_3_4,Length=0.032810000,Units=km
new line.1489515 bus1=BBT1607353.1.2.3.0,bus2=BBT1607339.1.2.3.0,Phases=3,Linecode=BT803_BT803_4_3_4,Length=0.023606000,Units=km
new line.1489522 bus1=BBT1607367.1.2.3.0,bus2=BBT1607514.1.2.3.0,Phases=3,Linecode=BT803_BT803_4_3_4,Length=0.009437000,Units=km
new line.1489529 bus1=BBT1607374.1.2.3.0,bus2=BBT1607388.1.2.3.0,Phases=3,Linecode=BT803_BT803_4_3_4,Length=0.035617000,Units=km
new line.1489536 bus1=BBT1607381.1.2.3.0,bus2=BBT1607360.1.2.3.0,Phases=3,Linecode=BT803_BT803_4_3_4,Length=0.034213000,Units=km
new line.1489543 bus1=BBT1607507.1.2.3.0,bus2=BBT174632330.1.2.3.0,Phases=3,Linecode=BT803_BT803_4_3_4,Length=0.022809000,Units=km
new line.1489550 bus1=BBT1607395.1.2.3.0,bus2=BBT1607367.1.2.3.0,Phases=3,Linecode=BT803_BT803_4_3_4,Length=0.037811000,Units=km
new line.1489557 bus1=BBT1607318.1.2.3.0,bus2=BBT1607395.1.2.3.0,Phases=3,Linecode=BT307_BT307_7_3_1,Length=0.000501000,Units=km
new line.1489564 bus1=BBT1607395.1.2.3.0,bus2=BBT1607416.1.2.3.0,Phases=3,Linecode=BT803_BT803_4_3_4,Length=0.036628000,Units=km
new line.1489571 bus1=BBT1607402.1.2.3.0,bus2=BBT1607430.1.2.3.0,Phases=3,Linecode=BT803_BT803_4_3_4,Length=0.035813000,Units=km
new line.1489578 bus1=BBT2905678.1.2.3.0,bus2=BBT1607409.1.2.3.0,Phases=3,Linecode=BT803_BT803_4_3_4,Length=0.033023000,Units=km
new line.1489585 bus1=BBT1607416.1.2.3.0,bus2=BBT1607451.1.2.3.0,Phases=3,Linecode=BT803_BT803_4_3_4,Length=0.029840000,Units=km
new line.1489592 bus1=BBT1607444.1.2.3.0,bus2=BBT1607423.1.2.3.0,Phases=3,Linecode=BT803_BT803_4_3_4,Length=0.026633000,Units=km
new line.1489599 bus1=BBT1607451.1.2.3.0,bus2=BBT1607444.1.2.3.0,Phases=3,Linecode=BT803_BT803_4_3_4,Length=0.003607000,Units=km
new line.1489606 bus1=BBT1607451.1.2.3.0,bus2=BBT1607458.1.2.3.0,Phases=3,Linecode=BT803_BT803_4_3_4,Length=0.006710000,Units=km
new line.1489613 bus1=BBT1607451.1.2.3.0,bus2=BBT1607465.1.2.3.0,Phases=3,Linecode=BT803_BT803_4_3_4,Length=0.032210000,Units=km
new line.1489620 bus1=BBT1607458.1.2.3.0,bus2=BBT1607479.1.2.3.0,Phases=3,Linecode=BT803_BT803_4_3_4,Length=0.030239000,Units=km
new line.1489627 bus1=BBT1607465.1.2.3.0,bus2=BBT1607486.1.2.3.0,Phases=3,Linecode=BT803_BT803_4_3_4,Length=0.024419000,Units=km
new line.1489634 bus1=BBT1607472.1.2.3.0,bus2=BBT2905678.1.2.3.0,Phases=3,Linecode=BT803_BT803_4_3_4,Length=0.035008000,Units=km
new line.1489641 bus1=BBT1607493.1.2.3.0,bus2=BBT174632245.1.2.3.0,Phases=3,Linecode=BT803_BT803_4_3_4,Length=0.024845000,Units=km
new line.1489648 bus1=BBT1607493.1.2.3.0,bus2=BBT1607472.1.2.3.0,Phases=3,Linecode=BT803_BT803_4_3_4,Length=0.033023000,Units=km
new line.1489655 bus1=BBT1607493.1.2.3.0,bus2=BBT1607500.1.2.3.0,Phases=3,Linecode=BT803_BT803_4_3_4,Length=0.032210000,Units=km
new line.1489662 bus1=BBT1607507.1.2.3.0,bus2=BBT1607381.1.2.3.0,Phases=3,Linecode=BT803_BT803_4_3_4,Length=0.023027000,Units=km
new line.1489669 bus1=BBT1607507.1.2.3.0,bus2=BBT1607402.1.2.3.0,Phases=3,Linecode=BT803_BT803_4_3_4,Length=0.010819000,Units=km
new line.1489676 bus1=BBT1607409.1.2.3.0,bus2=BBT1607507.1.2.3.0,Phases=3,Linecode=BT803_BT803_4_3_4,Length=0.010003000,Units=km
new line.1489683 bus1=BBT1607514.1.2.3.0,bus2=BBT1607346.1.2.3.0,Phases=3,Linecode=BT803_BT803_4_3_4,Length=0.022809000,Units=km
new line.1489690 bus1=BBT1607514.1.2.3.0,bus2=BBT1607353.1.2.3.0,Phases=3,Linecode=BT803_BT803_4_3_4,Length=0.013420000,Units=km
new line.1489697 bus1=BBT1607514.1.2.3.0,bus2=BBT1607374.1.2.3.0,Phases=3,Linecode=BT803_BT803_4_3_4,Length=0.021265000,Units=km
new line.1489704 bus1=BBT1607535.1.2.3.0,bus2=BBT1607528.1.2.3.0,Phases=3,Linecode=BT107_BT107_7_3_1,Length=0.031439000,Units=km
new line.1489711 bus1=BBT1607542.1.2.3.0,bus2=BBT1607535.1.2.3.0,Phases=3,Linecode=BT107_BT107_7_3_1,Length=0.028637000,Units=km
new line.1489718 bus1=BBT1607549.1.2.3.0,bus2=BBT1607542.1.2.3.0,Phases=3,Linecode=BT107_BT107_7_3_1,Length=0.029243000,Units=km
new line.1489725 bus1=BBT1607549.1.2.3.0,bus2=BBT1607570.1.2.3.0,Phases=3,Linecode=BT107_BT107_7_3_1,Length=0.029842000,Units=km
new line.1489732 bus1=BBT1607577.1.2.3.0,bus2=BBT1607556.1.2.3.0,Phases=3,Linecode=BT803_BT803_4_3_4,Length=0.027238000,Units=km
new line.1489739 bus1=BBT1607584.1.2.3.0,bus2=BBT1607563.1.2.3.0,Phases=3,Linecode=BT108_BT107_7_3_1,Length=0.041795000,Units=km
new line.1489746 bus1=BBT1607584.1.2.3.0,bus2=BBT1607577.1.2.3.0,Phases=3,Linecode=BT803_BT803_4_3_4,Length=0.009004000,Units=km
new line.1489753 bus1=BBT1607591.1.2.3.0,bus2=BBT1607549.1.2.3.0,Phases=3,Linecode=BT107_BT107_7_3_1,Length=0.033464000,Units=km
new line.1489760 bus1=BBT1607598.1.2.3.0,bus2=BBT1607584.1.2.3.0,Phases=3,Linecode=BT108_BT107_7_3_1,Length=0.034937000,Units=km
new line.1489767 bus1=BBT1607605.1.2.3.0,bus2=BBT1607598.1.2.3.0,Phases=3,Linecode=BT108_BT107_7_3_1,Length=0.018979000,Units=km
new line.1489774 bus1=BBT1607521.1.2.3.0,bus2=BBT1607605.1.2.3.0,Phases=3,Linecode=BT307_BT307_7_3_1,Length=0.000501000,Units=km
new line.1489781 bus1=BBT1607605.1.2.3.0,bus2=BBT1607612.1.2.3.0,Phases=3,Linecode=BT108_BT107_7_3_1,Length=0.027864000,Units=km
new line.1489788 bus1=BBT1607612.1.2.3.0,bus2=BBT1607591.1.2.3.0,Phases=3,Linecode=BT107_BT107_7_3_1,Length=0.032244000,Units=km
new line.1489795 bus1=BBT1607612.1.2.3.0,bus2=BBT1607619.1.2.3.0,Phases=3,Linecode=BT108_BT107_7_3_1,Length=0.022853000,Units=km
new line.1489802 bus1=BBT1607612.1.2.3.0,bus2=BBT1607626.1.2.3.0,Phases=3,Linecode=BT107_BT107_7_3_1,Length=0.013009000,Units=km
new line.1489809 bus1=BBT1607626.1.2.3.0,bus2=BBT1607633.1.2.3.0,Phases=3,Linecode=BT107_BT107_7_3_1,Length=0.041200000,Units=km
new line.1489816 bus1=BBT1607633.1.2.3.0,bus2=BBT1607640.1.2.3.0,Phases=3,Linecode=BT107_BT107_7_3_1,Length=0.050633000,Units=km
new line.1490425 bus1=BBT1608235.1.2.3.0,bus2=BBT1608228.1.2.3.0,Phases=3,Linecode=BT803_BT803_4_3_4,Length=0.026633000,Units=km
new line.1490432 bus1=BBT1608242.1.2.3.0,bus2=BBT1608221.1.2.3.0,Phases=3,Linecode=BT803_BT803_4_3_4,Length=0.040875000,Units=km
...