2024_89_CemigReconfigurationCases/1_AlimsCemig/MCLU14/MCLU14Ramais.dss
new line.RML10106449 bus1=BBT147657619.1.0,bus2=RML1010106449.1.0,Phases=1,Linecode=CABBTG02_4_1,Length=0.02,Units=km
new line.RML10133261 bus1=BBT1720970.2.0,bus2=RML1010133261.2.0,Phases=1,Linecode=CABBTG02_4_1,Length=0.02,Units=km
new line.RML10154374 bus1=BBT1615214.1.2.0,bus2=RML1010154374.1.2.0,Phases=2,Linecode=CABBTG05_4_2,Length=0.02,Units=km
new line.RML10154975 bus1=BBT1781156.1.2.0,bus2=RML1010154975.1.2.0,Phases=2,Linecode=CABBTG05_4_2,Length=0.02,Units=km
new line.RML10212356 bus1=BBT1789031.2.3.0,bus2=RML1010212356.2.3.0,Phases=2,Linecode=CABBTG05_4_2,Length=0.02,Units=km
new line.RML10212361 bus1=BBT1789031.2.3.0,bus2=RML1010212361.2.3.0,Phases=2,Linecode=CABBTG05_4_2,Length=0.02,Units=km
new line.RML10213922 bus1=BBT1723189.1.2.3.0,bus2=RML1010213922.1.2.3.0,Phases=3,Linecode=CABBTG06_4_3,Length=0.02,Units=km
new line.RML10245381 bus1=BBT147657619.3.0,bus2=RML1010245381.3.0,Phases=1,Linecode=CABBTG02_4_1,Length=0.02,Units=km
new line.RML10263400 bus1=BBT1791103.2.0,bus2=RML1010263400.2.0,Phases=1,Linecode=CABBTG02_4_1,Length=0.02,Units=km
new line.RML10264391 bus1=BBT147657619.2.3.0,bus2=RML1010264391.2.3.0,Phases=2,Linecode=CABBTG05_4_2,Length=0.02,Units=km
new line.RML10264726 bus1=BBT1791103.1.2.3.0,bus2=RML1010264726.1.2.3.0,Phases=3,Linecode=CABBTG06_4_3,Length=0.02,Units=km
new line.RML10265291 bus1=BBT1748648.1.2.0,bus2=RML1010265291.1.2.0,Phases=2,Linecode=CABBTG05_4_2,Length=0.02,Units=km
new line.RML10290049 bus1=BBT1732492.1.2.3.0,bus2=RML1010290049.1.2.3.0,Phases=3,Linecode=CABBTG06_4_3,Length=0.02,Units=km
new line.RML10291382 bus1=BBT1722783.1.2.3.0,bus2=RML1010291382.1.2.3.0,Phases=3,Linecode=CABBTG07_4_3,Length=0.02,Units=km
new line.RML10291392 bus1=BBT1722804.1.2.3.0,bus2=RML1010291392.1.2.3.0,Phases=3,Linecode=CABBTG07_4_3,Length=0.02,Units=km
new line.RML10303843 bus1=BBT1784894.1.2.0,bus2=RML1010303843.1.2.0,Phases=2,Linecode=CABBTG05_4_2,Length=0.02,Units=km
new line.RML10303857 bus1=BBT1748515.1.0,bus2=RML1010303857.1.0,Phases=1,Linecode=CABBTG02_4_1,Length=0.02,Units=km
new line.RML10304383 bus1=BBT93876262.1.0,bus2=RML1010304383.1.0,Phases=1,Linecode=CABBTG02_4_1,Length=0.02,Units=km
new line.RML10316339 bus1=BBT147657619.3.0,bus2=RML1010316339.3.0,Phases=1,Linecode=CABBTG02_4_1,Length=0.02,Units=km
new line.RML10316472 bus1=BBT1778342.2.0,bus2=RML1010316472.2.0,Phases=1,Linecode=CABBTG02_4_1,Length=0.02,Units=km
new line.RML10325935 bus1=BBT1741291.1.0,bus2=RML1010325935.1.0,Phases=1,Linecode=CABBTG02_4_1,Length=0.02,Units=km
new line.RML10327344 bus1=BBT1801435.2.0,bus2=RML1010327344.2.0,Phases=1,Linecode=CABBTG02_4_1,Length=0.02,Units=km
new line.RML10328119 bus1=BBT1729125.1.0,bus2=RML1010328119.1.0,Phases=1,Linecode=CABBTG02_4_1,Length=0.02,Units=km
new line.RML10328617 bus1=BBT1789108.1.2.0,bus2=RML1010328617.1.2.0,Phases=2,Linecode=CABBTG05_4_2,Length=0.02,Units=km
new line.RML10356023 bus1=BBT1761633.1.2.0,bus2=RML1010356023.1.2.0,Phases=2,Linecode=CABBTG05_4_2,Length=0.02,Units=km
new line.RML10368775 bus1=BBT1800238.1.0,bus2=RML1010368775.1.0,Phases=1,Linecode=CABBTG02_4_1,Length=0.02,Units=km
new line.RML10382975 bus1=BBT1728628.1.2.0,bus2=RML1010382975.1.2.0,Phases=2,Linecode=CABBTG05_4_2,Length=0.02,Units=km
new line.RML10392097 bus1=BBT1743839.2.3.0,bus2=RML1010392097.2.3.0,Phases=2,Linecode=CABBTG05_4_2,Length=0.02,Units=km
new line.RML10414205 bus1=BBT1801526.1.2.0,bus2=RML1010414205.1.2.0,Phases=2,Linecode=CABBTG05_4_2,Length=0.02,Units=km
new line.RML10414235 bus1=BBT147657927.1.0,bus2=RML1010414235.1.0,Phases=1,Linecode=CABBTG02_4_1,Length=0.02,Units=km
new line.RML10422846 bus1=BBT1607423.2.3.0,bus2=RML1010422846.2.3.0,Phases=2,Linecode=CABBTG05_4_2,Length=0.02,Units=km
new line.RML10451591 bus1=BBT1615347.1.2.3.0,bus2=RML1010451591.1.2.3.0,Phases=3,Linecode=CABBTG12_4_3,Length=0.02,Units=km
new line.RML10466182 bus1=BBT1764979.1.2.3.0,bus2=RML1010466182.1.2.3.0,Phases=3,Linecode=CABBTG06_4_3,Length=0.02,Units=km
new line.RML10466748 bus1=BBT1730539.1.2.3.0,bus2=RML1010466748.1.2.3.0,Phases=3,Linecode=CABBTG06_4_3,Length=0.02,Units=km
new line.RML10482289 bus1=BBT1730280.1.2.0,bus2=RML1010482289.1.2.0,Phases=2,Linecode=CABBTG05_4_2,Length=0.02,Units=km
new line.RML10482296 bus1=BBT1721173.1.0,bus2=RML1010482296.1.0,Phases=1,Linecode=CABBTG02_4_1,Length=0.02,Units=km
new line.RML10483480 bus1=BBT1719325.1.2.0,bus2=RML1010483480.1.2.0,Phases=2,Linecode=CABBTG05_4_2,Length=0.018,Units=km
new line.RML10484050 bus1=BBT2355562.1.2.0,bus2=RML1010484050.1.2.0,Phases=2,Linecode=CABBTG05_4_2,Length=0.016,Units=km
new line.RML10485028 bus1=BBT4039818.3.0,bus2=RML1010485028.3.0,Phases=1,Linecode=CABBTG02_4_1,Length=0.023,Units=km
new line.RML10494525 bus1=BBT1789129.1.2.0,bus2=RML1010494525.1.2.0,Phases=2,Linecode=CABBTG05_4_2,Length=0.02,Units=km
new line.RML10494552 bus1=BBT1741788.1.0,bus2=RML1010494552.1.0,Phases=1,Linecode=CABBTG02_4_1,Length=0.02,Units=km
...